*************   S T A R T I N G   4 x 5   G E O S - C H E M   *************

===> Mode of operation         : GEOS-Chem "Classic"
===> GEOS-Chem version         : 12.1.0
===> Compiler                  : GNU Fortran compiler (aka gfortran)
===> Driven by meteorology     : GMAO GEOS-FP (on native 72-layer vertical grid)
===> ISORROPIA ATE package     : ON
===> Parallelization w/ OpenMP : ON
===> Binary punch diagnostics  : ON
===> netCDF diagnostics        : ON
===> netCDF file compression   : SUPPORTED

===> SIMULATION START TIME: 2019/01/07 16:23 <===

===============================================================================
G E O S - C H E M   U S E R   I N P U T

READ_INPUT_FILE: Reading input.geos

SIMULATION MENU
---------------
Start time of run           : 20160701 000000
End time of run             : 20160708 000000
Run directory               : ./
Data Directory              : /n/holylfs/EXTERNAL_REPOS/GEOS-CHEM/gcgrid/data/ExtData/
CHEM_INPUTS directory       : /n/holylfs/EXTERNAL_REPOS/GEOS-CHEM/gcgrid/data/ExtData/CHEM_INPUTS/
Resolution-specific dir     : GEOS_4x5/
Is this a nested-grid sim?  :     F
Global offsets I0, J0       :     0    0

TIMESTEP MENU
---------------
Transport/Convection [sec]  :   600
Chemistry/Emissions  [sec]  :  1200

TRANSPORT MENU
--------------
Turn on transport?          :     T
Let TPCORE Fill negatives?  :     T
IORD, JORD, KORD for TPCORE?:     3    3    7

CONVECTION MENU
----------------
Turn on cloud convection?   :     T
Turn on PBL mixing?         :     T
Turn on non-local PBL?      :     T

EMISSIONS MENU
--------------
Turn on emissions?          :     T
HEMCO Configuration file    : HEMCO_Config.rc
Set day PBL BrO conc to 1ppt:     F
Use CH4 emissions inventory?:     F
Turn on surface BC for      : 
      --> methane?          :     F
      --> OCS?              :     T
      --> CFCs/HCFCs/halon? :     T
      --> chlorine species? :     T
      --> bromine species?  :     F
      --> N2O?              :     T
Set initial global MRs for  : 
      --> strat. H2O?       :     T
CFC emissions read for year :     0

AEROSOL MENU
------------
Online SULFATE AEROSOLS?    :     T
Metal catalyzed SO2 ox.?    :     T
Online CARBON AEROSOLS?     :     T
Brown Carbon Aerosol?       :     F
Online COMPLEX SOA?         :     F
Semivolatile POA?           :     F
Spatial & seasonal OM/OC?   :     F
Online DUST AEROSOLS?       :     T
Acid uptake on dust?        :     F
Online SEA SALT AEROSOLS?   :     T
Accum  SEA SALT radii [um]  :   0.01 -   0.50
Coarse SEA SALT radii [um]  :   0.50 -   8.00
MARINE ORGANIC AEROSOLS?    :     F
Settle strat. aerosols?     :     T
Online SOLID PSC aerosols?  :     T
Allow hom. NAT nucleation?  :     F
NAT supercooling requirement:   3.00K
Ice supersaturation req.    :  20.00K
Perform PSC het. chemistry? :     T
Use strat. aerosol OD?      :     T
BC Absorption Enhancement?  :     T
Hydrophilic BC AE factor    :   1.50
Hydrophobic BC AE factor    :   1.00

DEPOSITION MENU
---------------
Turn on dry deposition?     :     T
Dry dep over full PBL?      :     F
Turn on wet deposition?     :     T

CHEMISTRY MENU
--------------
Turn on chemistry?          :     T
Use linear. strat. chem?    :     T
 => Use Linoz for O3?       :     T
Enable UCX?                 :     T
Online strat. H2O?          :     T
Online ozone for FAST-JX?   :     T
Ozone from met for FAST-JX? :     T
TOMS/SBUV ozone for FAST-JX?:     F
GAMMA HO2                   : 0.20

NOTE ABOUT OVERHEAD O3 FOR FAST-JX:
 Online O3 from GEOS-Chem will be used
 to weight the O3 column within the
 chemistry grid and O3 from met or TOMS
 will be used outside the chemistry grid.

RADIATION MENU
--------------
AOD output wavelength (nm)  :   550.0
Turn on radiation?          :     F
Consider LW                 :     F
Consider SW                 :     F
Clear-sky/All-sky           :     F/    F
Radiation timestep [sec]    : 10800
Flux output selection       : 00000000010

OUTPUT MENU
-----------
              1111111111222222222233
     1234567890123456789012345678901
     -------------------------------
JAN--3000000000000000000000000000000
FEB--30000000000000000000000000000
MAR--3000000000000000000000000000000
APR--300000000000000000000000000000
MAY--3000000000000000000000000000000
JUN--300000000000000000000000000000
JUL--3000000300000000000000000000000
AUG--3000000000000000000000000000000
SEP--300000000000000000000000000000
OCT--3000000000000000000000000000000
NOV--300000000000000000000000000000
DEC--3000000000000000000000000000000

GAMAP MENU
---------------
GAMAP "diaginfo.dat"   file : diaginfo.dat
GAMAP "tracerinfo.dat" file : tracerinfo.dat

DIAGNOSTIC MENU
---------------
Diag    L   Tracers being saved to disk
ND05   72   1 - 20
ND06    1   1 -  4
ND07   72   1 - 15
ND08    1   1 -  4
ND11    1   1 -  5
ND13   72   1 -  1
ND21   72   1 - 60
ND22   72   1 - 76
ND31   73   1 -  1
ND32   72   1 -  1
ND38   72   1 -162
ND39   72   1 -162
ND42   72   1 - 25
ND43   72   1 -  4
ND45   72   1 -162
ND54   72   1 -  1
ND55   72   1 -  3
ND66   72   1 -  7
ND67   72   1 - 23
ND68   72   1 -  8
ND69    1   1 -  1

PLANEFLIGHT MENU
----------------
Turn on planeflight diag?   :     F
Flight track input file     : Planeflight.dat.YYYYMMDD
Output file name            : plane.log.YYYYMMDD

ND48 STATION TIMESERIES MENU
----------------------------
Turn on ND48 timeseries?    :     F
ND48 timeseries file name   : stations.YYYYMMDD
ND48 save frequency [sec]   :  3600
ND48 timeseries station   1 :   133   29   15    2

ND49 3-D INSTANTANEOUS TIMESERIES MENU
--------------------------------------
Turn on ND49 timeseries?    :     F
ND49 timeseries file name   : tsYYYYMMDD.bpch
ND49 timeseries tracers     :   94
ND49 save frequency [sec]   :  7200
ND49 longitude limits       :    70   30
ND49 latitude  limits       :    23   46
ND49 level     limits       :     1    1

ND50 3-D 24hr AVG TIMESERIES MENU
---------------------------------
Turn on ND50 timeseries?    :     F
ND50 timeseries file name   : ts_24h_avg.YYYYMMDD.bpch
Output as HDF?              :     F
ND50 timeseries tracers     :   82  83  84  85  86  87
ND50 longitude limits       :     1   72
ND50 latitude  limits       :     1   46
ND50 level     limits       :     1    1

ND51 MORNING OR AFTERNOON TIMESERIES MENU
-----------------------------------------
Turn on ND51 timeseries?    :     F
ND51 timeseries file name   : ts_satellite.YYYYMMDD.bpch
Output as HDF?              :     F
ND41 timeseries tracers     :   46 504 506
ND51 hour to write to disk  :   0.0
ND51 averaging period [GMT] :   9.0 11.0
ND51 longitude limits       :     1   72
ND51 latitude  limits       :     1   46
ND51 altitude  limits       :     1   40

ND51b MORNING OR AFTERNOON TIMESERIES MENU
-----------------------------------------
Turn on ND51b timeseries?    :     F
ND51b timeseries file name   : ts_13_15.NA.YYYYMMDD.h5
Output as HDF?               :     F
ND41 timeseries tracers      :   1  4 20 25 26 27 28 29 30 31 32 33 34 35 36 37 38 39 40 41 42 43 44 45 46 47 48 49 50 51 52 53 54 60 61 62 63 64 65 66 72 73 75 82 83 84 85 86 87 93 94 98 99
ND51b hour to write to disk  :   1.0
ND51b averaging period [GMT] :  13.0 15.0
ND51b longitude limits       :     1   72
ND51b latitude  limits       :     1   46
ND51b altitude  limits       :     1    1

ND63 SHIP TIMESERIES MENU
--------------------------------------
Turn on ND63 timeseries?    :     F
ND63 timeseries file name   : paranox_ts.YYYYMMDD.bpch
ND63 timeseries tracers     :   1
ND63 save frequency [sec]   :  7200
ND63 longitude limits       :    70   30
ND63 latitude  limits       :    23   46

PROD & LOSS DIAGNOSTIC MENU
---------------------------
Turn on prod & loss diag?   :     T
# of levels for P/L diag    :    72
Save P(O3), L(O3) for TagO3?:     F
Save CO Production?:     F

Family=       POx  Type=prod

Family=       LOx  Type=loss

Family=       PCO  Type=prod

Family=       LCO  Type=loss

Family=      PSO4  Type=prod

Family=      LCH4  Type=loss

Family=     PH2O2  Type=prod

BENCHMARK MENU
--------------
Save benchmark diag output?  :     T
File for initial species mass: Ox.mass.initial
File for final species mass  : Ox.mass.final

NESTED GRID MENU
----------------
Save TPCORE BC's at 4x5     :     F
Save TPCORE BC's at 2x25    :     F
Save BC's over North America:     F
Directory with NA BC's      : BC_4x5_NA/
Save BC's over Europe       :     F
Directory with EU BC's      : BC_4x5_EU/
Save BC's over China/SE Asia:     F
Directory with CH BC's      : BC_4x5_CH/
Save BC's over Asia         :     F
Directory with AS BC's      : BC_4x5_AS/
Save BC's over custom region:     F
Directory with custom BC's  : BC_4x5/
Timestep for BC's [sec]     : 10800
LL box of BC region         :     9   26
UR box of BC region         :    29   41
Nested grid window offsets  :     3    3    3    3

SET_TIMESTEPS: setting GEOS-Chem timesteps!
-------------------------------------------
Chemistry  Timestep [sec] :   1200
Convection Timestep [sec] :    600
Dynamics   Timestep [sec] :    600
Emission   Timestep [sec] :   1200
Unit Conv  Timestep [sec] :    600
Diagnostic Timestep [sec] :   1200
Radiation  Timestep [sec] :  10800
  
 ======================
 Contents of  CollList
  
 Restart
  

Registered variables contained within the State_Met object:
===============================================================================
 MET_LOCALSOLARTIME             | Local solar time     | xy    | hours
 MET_XCHLRNATIVE                | Average CHLR per Ols | xyz C | mg m-3
 MET_XLAINATIVE                 | Average LAI per Olso | xyz C | m2 m-2
 MET_LANDTYPEFRAC               | Olson fraction per l | xyz C | 1
 MET_MODISCHLR                  | Daily chlorophyll-a  | xy    | mg m-3
 MET_XCHLR                      | MODIS chlorophyll-a  | xyz C | mg m-3
 MET_MODISLAI                   | Daily LAI computed f | xy    | m2 m-2
 MET_XLAI                       | MODIS LAI for each O | xyz C | m2 m-2
 MET_IUSE                       | Fraction (per mil) o | xyz C | o/oo
 MET_ILAND                      | Olson land type indi | xyz C | 1
 MET_IREG                       | Number of Olson land | xy    | 1
 MET_TMPU2                      | Instantaneous temper | xyz C | K
 MET_TMPU1                      | Instantaneous temper | xyz C | K
 MET_SPHU2                      | Instantaneous specif | xyz C | g kg-1
 MET_SPHU1                      | Instantaneous specif | xyz C | g kg-1
 MET_REEVAPLS                   | Evaporation of large | xyz C | kg
 MET_REEVAPCN                   | Evaporation of conve | xyz C | kg kg-1 s-1
 MET_PFLLSAN                    | Downward flux of liq | xyz E | kg m-2 s-1
 MET_PFLCU                      | Downward flux of liq | xyz E | kg m-2 s-1
 MET_PFILSAN                    | Downwared flux of ic | xyz E | kg m-2 s-1
 MET_PFICU                      | Downward flux of ice | xyz E | kg m-2 s-1
 MET_V                          | North-south componen | xyz C | m s-1
 MET_U                          | East-west component  | xyz C | m s-1
 MET_TAUCLW                     | Optical depth of H2O | xyz C | 1
 MET_TAUCLI                     | Optical depth of ice | xyz C | 1
 MET_TV                         | Virtual temperature  | xyz C | K
 MET_THETA                      | Potential temperatur | xyz C | K
 MET_T                          | Temperature          | xyz C | K
 MET_SPHU                       | Specific humidity (w | xyz C | g kg-1
 MET_RH                         | Relative humidity    | xyz C | %
 MET_QL                         | Water mixing ratio ( | xyz C | kg kg-1
 MET_QI                         | Ice mixing ratio (w/ | xyz C | kg kg-1
 MET_PMIDDRY                    | Pressure (w/r/t dry  | xyz C | hPa
 MET_PMID                       | Pressure (w/r/t mois | xyz C | hPa
 MET_PEDGEDRY                   | Pressure (w/r/t dry  | xyz E | hPa
 MET_PEDGE                      | Pressure (w/r/t mois | xyz E | hPa
 MET_OPTD                       | Visible optical dept | xyz C | 1
 MET_OMEGA                      | Updraft velocity     | xyz C | Pa s-1
 MET_DTRAIN                     | Detrainment flux     | xyz C | kg m-2 s-1
 MET_DQRLSAN                    | Production rate of l | xyz C | kg kg-1 s-1
 MET_DQRCU                      | Production rate of c | xyz C | kg kg-1 s-1
 MET_DPDRYPREV                  | Previous State_Met%D | xyz C | hPa
 MET_DELPDRY                    | Delta-pressure acros | xyz C | hPa
 MET_DELP                       | Delta-pressure acros | xyz C | hPa
 MET_CMFMC                      | Cloud mass flux      | xyz E | kg m-2 s-1
 MET_CLDF                       | 3-D cloud fraction   | xyz C | 1
 MET_BXHEIGHT                   | Grid box height (w/r | xyz C | m
 MET_AVGW                       | Water vapor mixing r | xyz C | vol vol-1
 MET_AREAM2                     | Surface area of grid | xyz C | m2
 MET_AIRVOL                     | Volume of dry air in | xyz C | m3
 MET_AIRNUMDEN                  | Dry air density      | xyz C | m-3
 MET_MAIRDEN                    | Moist air density    | xyz C | kg m-3
 MET_AIRDEN                     | Dry air density      | xyz C | kg m-3
 MET_AD                         | Dry air mass         | xyz C | kg
 MET_SEAICE90                   | Sea ice coverage 90- | xy    | 1
 MET_SEAICE80                   | Sea ice coverage 80- | xy    | 1
 MET_SEAICE70                   | Sea ice coverage 70- | xy    | 1
 MET_SEAICE60                   | Sea ice coverage 60- | xy    | 1
 MET_SEAICE50                   | Sea ice coverage 50- | xy    | 1
 MET_SEAICE40                   | Sea ice coverage 40- | xy    | 1
 MET_SEAICE30                   | Sea ice coverage 30- | xy    | 1
 MET_SEAICE20                   | Sea ice coverage 20- | xy    | 1
 MET_SEAICE10                   | Sea ice coverage 10- | xy    | 1
 MET_SEAICE00                   | Sea ice coverage 00- | xy    | 1
 MET_PRECLSC                    | Large-scale precipit | xy    | kg m-2 s-1
 MET_PRECANV                    | Anvil precipitation  | xy    | kg m-2 s-1
 MET_FRSNO                      | Fraction of snow on  | xy    | 1
 MET_FRSEAICE                   | Fraction of sea ice  | xy    | 1
 MET_Z0                         | Surface roughness he | xy    | m
 MET_V10M                       | North-south wind at  | xy    | m s-1
 MET_UVALBEDO                   | Ultraviolet surface  | xy    | 1
 MET_USTAR                      | Friction velocity    | xy    | m s-1
 MET_U10M                       | East-west wind at 10 | xy    | m s-1
 MET_TSKIN                      | Surface skin tempera | xy    | K
 MET_TS                         | Surface temperature  | xy    | K
 MET_TROPP                      | Tropopause pressure  | xy    | hPa
 MET_TROPHT                     | Tropopause height    | xy    | km
 MET_TROPLEV                    | GEOS-Chem level wher | xy    | 1
 MET_TO3                        | Total overhead ozone | xy    | dobsons
 MET_SWGDN                      | Incident shortwave r | xy    | W m-2
 MET_SUNCOSMID                  | Cosine of solar zeni | xy    | 1
 MET_SUNCOS                     | Cosine of solar zeni | xy    | 1
 MET_SNOMAS                     | Snow mass            | xy    | kg m-2
 MET_SNODP                      | Snow depth           | xy    | m
 MET_SLP                        | Sea level pressure   | xy    | hPa
 MET_PSC2DRY                    | Dry interpolated sur | xy    | hPa
 MET_PS2DRY                     | Dry surface pressure | xy    | hPa
 MET_PS1DRY                     | Dry surface pressure | xy    | hPa
 MET_PSC2WET                    | Wet interpolated sur | xy    | hPa
 MET_PS2WET                     | Wet surface pressure | xy    | hPa
 MET_PS1WET                     | Wet surface pressure | xy    | hPa
 MET_PRECTOT                    | Total precipitation  | xy    | kg m-2 s-1
 MET_PRECCON                    | Convective precipita | xy    | kg m-2 s-1
 MET_PHIS                       | Surface geopotential | xy    | m2 s-1
 MET_PBLTOPL                    | Model layer of the p | xy    | layer
 MET_PBLH                       | Planetary boundary l | xy    | m
 MET_PARDF                      | Diffuse photosynthet | xy    | W m-2
 MET_PARDR                      | Direct photosyntheti | xy    | W m-2
 MET_LWI                        | Land-water-ice indic | xy    | 1
 MET_LAI                        | Leaf area index from | xy    | m2 m-2
 MET_HFLUX                      | Sensible heat flux   | xy    | W m-2
 MET_GWETTOP                    | Top soil moisture    | xy    | 1
 MET_GWETROOT                   | Root soil wetness    | xy    | 1
 MET_FROCEAN                    | Fraction of ocean    | xy    | 1
 MET_FRLANDIC                   | Fraction of land ice | xy    | 1
 MET_FRLAND                     | Fraction of land     | xy    | 1
 MET_FRLAKE                     | Fraction of lake     | xy    | 1
 MET_FRCLND                     | Olson land fraction  | xy    | 1
 MET_EFLUX                      | Latent heat flux     | xy    | W m-2
 MET_CLDTOPS                    | Maximum cloud top he | xy    | level
 MET_CLDFRC                     | Column cloud fractio | xy    | 1
 MET_CHEMGRIDLEV                | Highest level of the | xy    | 1
 MET_ALBD                       | Visible surface albe | xy    | 1

ADVECTED SPECIES MENU
------------------------------------------------
  # Species Name  g/mole
  1 NO             30.00
  2 O3             48.00
  3 PAN           121.00
  4 CO             28.00
  5 ALK4           58.12
  6 ISOP           68.12
  7 HNO3           63.00
  8 H2O2           34.00
  9 ACET           58.08
 10 MEK            72.11
 11 ALD2           44.05
 12 RCHO           58.00
 13 MVK            70.00
 14 MACR           70.00
 15 NPMN          147.00
 16 PPN           135.00
 17 R4N2          119.00
 18 PRPE           42.08
 19 C3H8           44.10
 20 CH2O           30.00
 21 C2H6           30.07
 22 N2O5          108.00
 23 HNO4           79.00
 24 MP             48.00
 25 DMS            62.00
 26 SO2            64.00
 27 SO4            96.00
 28 SO4s           31.40
 29 MSA            96.00
 30 NH3            17.00
 31 NH4            18.00
 32 NIT            62.00
 33 NITs           31.40
 34 BCPI           12.01
 35 OCPI           12.01
 36 BCPO           12.01
 37 OCPO           12.01
 38 DST1           29.00
 39 DST2           29.00
 40 DST3           29.00
 41 DST4           29.00
 42 SALA           31.40
 43 SALC           31.40
 44 Br2           160.00
 45 Br             80.00
 46 BrO            96.00
 47 HOBr           97.00
 48 HBr            81.00
 49 BrNO2         126.00
 50 BrNO3         142.00
 51 CHBr3         253.00
 52 CH2Br2        174.00
 53 CH3Br          95.00
 54 MPN            93.00
 55 ISOPND        147.00
 56 ISOPNB        147.00
 57 MOBA          114.00
 58 PROPNN        119.00
 59 HAC            74.00
 60 GLYC           60.00
 61 MVKN          149.00
 62 MACRN         149.00
 63 MAP            76.00
 64 NO2            46.00
 65 NO3            62.00
 66 HNO2           47.00
 67 BENZ           78.11
 68 TOLU           92.14
 69 XYLE          106.16
 70 MTPA          136.23
 71 LIMO          136.23
 72 MTPO          136.23
 73 SOAP          150.00
 74 SOAS          150.00
 75 EOH            46.07
 76 MGLY           72.00
 77 GLYX           58.00
 78 ACTA           60.00
 79 HPALD         116.00
 80 DHDN          226.00
 81 ETHLN         105.00
 82 HCOOH          46.00
 83 IEPOXA        118.00
 84 IEPOXB        118.00
 85 IEPOXD        118.00
 86 ISN1          147.00
 87 RIPA          118.00
 88 RIPB          118.00
 89 RIPD          118.00
 90 IMAE          102.00
 91 SOAIE         118.00
 92 SOAME         102.00
 93 SOAGX          58.00
 94 SOAMG          72.00
 95 LVOC          154.00
 96 LVOCOA        154.00
 97 ISN1OG        226.00
 98 ISN1OA        226.00
 99 MONITS        215.00
100 MONITU        215.00
101 HONIT         215.00
102 IONITA         14.00
103 MONITA         14.00
104 INDIOL        102.00
105 IPMN          147.00
106 HC187         187.00
107 N2O            44.00
108 OCS            60.00
109 CH4            16.00
110 BrCl          115.00
111 HCl            36.00
112 CCl4          152.00
113 CH3Cl          50.00
114 CH3CCl3       133.00
115 CFC113        187.00
116 CFC114        187.00
117 CFC115        187.00
118 HCFC123       117.00
119 HCFC141b      117.00
120 HCFC142b      117.00
121 CFC11         137.00
122 CFC12         121.00
123 HCFC22         86.00
124 H1211         165.00
125 H1301         149.00
126 H2402         260.00
127 Cl             35.00
128 ClO            51.00
129 HOCl           52.00
130 ClNO3          97.00
131 ClNO2          81.00
132 ClOO           67.00
133 OClO           67.00
134 Cl2            71.00
135 Cl2O2         103.00
136 H2O            18.00
137 BrSALA         80.00
138 BrSALC         80.00
139 CHCl3         119.00
140 CH2Cl2         85.00
141 CH3I          142.00
142 CH2I2         268.00
143 CH2ICl        167.00
144 CH2IBr        221.00
145 HOI           144.00
146 I2            254.00
147 IBr           207.00
148 ICl           162.00
149 I             127.00
150 IO            143.00
151 HI            128.00
152 OIO           159.00
153 INO           157.00
154 IONO          173.00
155 IONO2         189.00
156 I2O2          286.00
157 I2O3          302.00
158 I2O4          318.00
159 ISALA         127.00
160 ISALC         127.00
161 AERI          127.00
162 pFe            55.85

Registered variables contained within the State_Chm object:
===============================================================================
 CHEM_KHETISLAHOBRHBR           | Sticking coeeficient | xyz C | 1
 CHEM_KHETISLAHOBRHCL           | Sticking coeeficient | xyz C | 1
 CHEM_KHETISLAHOCLHBR           | Sticking coeeficient | xyz C | 1
 CHEM_KHETISLAHOCLHCL           | Sticking coeeficient | xyz C | 1
 CHEM_KHETISLABRNO3HCL          | Sticking coeeficient | xyz C | 1
 CHEM_KHETISLABRNO3H2O          | Sticking coeeficient | xyz C | 1
 CHEM_KHETISLACLNO3HBR          | Sticking coeeficient | xyz C | 1
 CHEM_KHETISLACLNO3HCL          | Sticking coeeficient | xyz C | 1
 CHEM_KHETISLACLNO3H2O          | Sticking coeeficient | xyz C | 1
 CHEM_KHETISLAN2O5HCL           | Sticking coeeficient | xyz C | 1
 CHEM_KHETISLAN2O5H2O           | Sticking coeeficient | xyz C | 1
 CHEM_STATEPSC                  | Polar stratospheric  | xyz C | count
 CHEM_KPPHVALUE                 | H-value for Rosenbro | xyz C | 1
 CHEM_SO2AFTERCHEM              | SO2 after sulfate ch | xyz C | v/v
 CHEM_H2O2AFTERCHEM             | H2O2 after sulfate c | xyz C | v/v
 CHEM_WETDEPNITROGEN            | Wet deposited nitrog | xy    | molec/cm2/s
 CHEM_DRYDEPNITROGEN            | Dry deposited nitrog | xy    | molec/cm2/s
 CHEM_FUPDATEHOBR               | Correction factor fo | xyz C | 1
 CHEM_SO3AQ                     | Cloud sulfite concen | xyz C | mol/L
 CHEM_HSO3AQ                    | Cloud bisulfite conc | xyz C | mol/L
 CHEM_SSALKCOARSE               | Sea salt alkalinity, | xyz C | 1
 CHEM_SSALKACCUM                | Sea salt alkalinity, | xyz C | 1
 CHEM_PHCLOUD                   | Cloud pH             | xyz C | 1
 CHEM_BISULSAV                  | ISORROPIA Bisulfate  | xyz C | mol/L
 CHEM_ACIDPURSAV                | ISORROPIA ACIDPUR    | xyz C | mol/L
 CHEM_NARATSAV                  | ISORROPIA Na+ concen | xyz C | mol/L
 CHEM_SULRATSAV                 | ISORROPIA sulfate co | xyz C | mol/L
 CHEM_WATERSAV                  | ISORROPIA aerosol wa | xyz C | ug m-3
 CHEM_HPLUSSAV                  | ISORROPIA H+ concent | xyz C | mol/L
 CHEM_PHSAV                     | ISORROPIA aerosol pH | xyz C | 1
 CHEM_WETAERORADIICEI           | Wet aerosol radius f | xyz C | cm
 CHEM_WETAERORADIBGSULF         | Wet aerosol radius f | xyz C | cm
 CHEM_WETAERORADISSC            | Wet aerosol radius f | xyz C | cm
 CHEM_WETAERORADISSA            | Wet aerosol radius f | xyz C | cm
 CHEM_WETAERORADIOC             | Wet aerosol radius f | xyz C | cm
 CHEM_WETAERORADIBC             | Wet aerosol radius f | xyz C | cm
 CHEM_WETAERORADISULF           | Wet aerosol radius f | xyz C | cm
 CHEM_WETAERORADIMDUST7         | Wet aerosol radius f | xyz C | cm
 CHEM_WETAERORADIMDUST6         | Wet aerosol radius f | xyz C | cm
 CHEM_WETAERORADIMDUST5         | Wet aerosol radius f | xyz C | cm
 CHEM_WETAERORADIMDUST4         | Wet aerosol radius f | xyz C | cm
 CHEM_WETAERORADIMDUST3         | Wet aerosol radius f | xyz C | cm
 CHEM_WETAERORADIMDUST2         | Wet aerosol radius f | xyz C | cm
 CHEM_WETAERORADIMDUST1         | Wet aerosol radius f | xyz C | cm
 CHEM_WETAEROAREAICEI           | Wet aerosol area for | xyz C | cm2/cm3
 CHEM_WETAEROAREABGSULF         | Wet aerosol area for | xyz C | cm2/cm3
 CHEM_WETAEROAREASSC            | Wet aerosol area for | xyz C | cm2/cm3
 CHEM_WETAEROAREASSA            | Wet aerosol area for | xyz C | cm2/cm3
 CHEM_WETAEROAREAOC             | Wet aerosol area for | xyz C | cm2/cm3
 CHEM_WETAEROAREABC             | Wet aerosol area for | xyz C | cm2/cm3
 CHEM_WETAEROAREASULF           | Wet aerosol area for | xyz C | cm2/cm3
 CHEM_WETAEROAREAMDUST7         | Wet aerosol area for | xyz C | cm2/cm3
 CHEM_WETAEROAREAMDUST6         | Wet aerosol area for | xyz C | cm2/cm3
 CHEM_WETAEROAREAMDUST5         | Wet aerosol area for | xyz C | cm2/cm3
 CHEM_WETAEROAREAMDUST4         | Wet aerosol area for | xyz C | cm2/cm3
 CHEM_WETAEROAREAMDUST3         | Wet aerosol area for | xyz C | cm2/cm3
 CHEM_WETAEROAREAMDUST2         | Wet aerosol area for | xyz C | cm2/cm3
 CHEM_WETAEROAREAMDUST1         | Wet aerosol area for | xyz C | cm2/cm3
 CHEM_AERORADIICEI              | Dry aerosol radius f | xyz C | cm
 CHEM_AERORADIBGSULF            | Dry aerosol radius f | xyz C | cm
 CHEM_AERORADISSC               | Dry aerosol radius f | xyz C | cm
 CHEM_AERORADISSA               | Dry aerosol radius f | xyz C | cm
 CHEM_AERORADIOC                | Dry aerosol radius f | xyz C | cm
 CHEM_AERORADIBC                | Dry aerosol radius f | xyz C | cm
 CHEM_AERORADISULF              | Dry aerosol radius f | xyz C | cm
 CHEM_AERORADIMDUST7            | Dry aerosol radius f | xyz C | cm
 CHEM_AERORADIMDUST6            | Dry aerosol radius f | xyz C | cm
 CHEM_AERORADIMDUST5            | Dry aerosol radius f | xyz C | cm
 CHEM_AERORADIMDUST4            | Dry aerosol radius f | xyz C | cm
 CHEM_AERORADIMDUST3            | Dry aerosol radius f | xyz C | cm
 CHEM_AERORADIMDUST2            | Dry aerosol radius f | xyz C | cm
 CHEM_AERORADIMDUST1            | Dry aerosol radius f | xyz C | cm
 CHEM_AEROAREAICEI              | Dry aerosol area for | xyz C | cm2/cm3
 CHEM_AEROAREABGSULF            | Dry aerosol area for | xyz C | cm2/cm3
 CHEM_AEROAREASSC               | Dry aerosol area for | xyz C | cm2/cm3
 CHEM_AEROAREASSA               | Dry aerosol area for | xyz C | cm2/cm3
 CHEM_AEROAREAOC                | Dry aerosol area for | xyz C | cm2/cm3
 CHEM_AEROAREABC                | Dry aerosol area for | xyz C | cm2/cm3
 CHEM_AEROAREASULF              | Dry aerosol area for | xyz C | cm2/cm3
 CHEM_AEROAREAMDUST7            | Dry aerosol area for | xyz C | cm2/cm3
 CHEM_AEROAREAMDUST6            | Dry aerosol area for | xyz C | cm2/cm3
 CHEM_AEROAREAMDUST5            | Dry aerosol area for | xyz C | cm2/cm3
 CHEM_AEROAREAMDUST4            | Dry aerosol area for | xyz C | cm2/cm3
 CHEM_AEROAREAMDUST3            | Dry aerosol area for | xyz C | cm2/cm3
 CHEM_AEROAREAMDUST2            | Dry aerosol area for | xyz C | cm2/cm3
 CHEM_AEROAREAMDUST1            | Dry aerosol area for | xyz C | cm2/cm3
 CHEM_SPECIES_RCOOH             | Concentration for sp | xyz C | varies
 CHEM_SPECIES_O2                | Concentration for sp | xyz C | varies
 CHEM_SPECIES_N2                | Concentration for sp | xyz C | varies
 CHEM_SPECIES_MOH               | Concentration for sp | xyz C | varies
 CHEM_SPECIES_H2                | Concentration for sp | xyz C | varies
 CHEM_SPECIES_OH                | Concentration for sp | xyz C | varies
 CHEM_SPECIES_HO2               | Concentration for sp | xyz C | varies
 CHEM_SPECIES_O                 | Concentration for sp | xyz C | varies
 CHEM_SPECIES_O1D               | Concentration for sp | xyz C | varies
 CHEM_SPECIES_MO2               | Concentration for sp | xyz C | varies
 CHEM_SPECIES_MCO3              | Concentration for sp | xyz C | varies
 CHEM_SPECIES_MRO2              | Concentration for sp | xyz C | varies
 CHEM_SPECIES_R4O2              | Concentration for sp | xyz C | varies
 CHEM_SPECIES_INO2              | Concentration for sp | xyz C | varies
 CHEM_SPECIES_ETO2              | Concentration for sp | xyz C | varies
 CHEM_SPECIES_RIO2              | Concentration for sp | xyz C | varies
 CHEM_SPECIES_HC5               | Concentration for sp | xyz C | varies
 CHEM_SPECIES_CH2OO             | Concentration for sp | xyz C | varies
 CHEM_SPECIES_VRO2              | Concentration for sp | xyz C | varies
 CHEM_SPECIES_NMAO3             | Concentration for sp | xyz C | varies
 CHEM_SPECIES_HC5OO             | Concentration for sp | xyz C | varies
 CHEM_SPECIES_PIO2              | Concentration for sp | xyz C | varies
 CHEM_SPECIES_ISOPNBO2          | Concentration for sp | xyz C | varies
 CHEM_SPECIES_KO2               | Concentration for sp | xyz C | varies
 CHEM_SPECIES_OLNN              | Concentration for sp | xyz C | varies
 CHEM_SPECIES_OLND              | Concentration for sp | xyz C | varies
 CHEM_SPECIES_LIMO2             | Concentration for sp | xyz C | varies
 CHEM_SPECIES_RCO3              | Concentration for sp | xyz C | varies
 CHEM_SPECIES_ATO2              | Concentration for sp | xyz C | varies
 CHEM_SPECIES_MAOPO2            | Concentration for sp | xyz C | varies
 CHEM_SPECIES_R4N1              | Concentration for sp | xyz C | varies
 CHEM_SPECIES_MACROO            | Concentration for sp | xyz C | varies
 CHEM_SPECIES_B3O2              | Concentration for sp | xyz C | varies
 CHEM_SPECIES_ISOPNDO2          | Concentration for sp | xyz C | varies
 CHEM_SPECIES_PO2               | Concentration for sp | xyz C | varies
 CHEM_SPECIES_ISNOOA            | Concentration for sp | xyz C | varies
 CHEM_SPECIES_MAN2              | Concentration for sp | xyz C | varies
 CHEM_SPECIES_A3O2              | Concentration for sp | xyz C | varies
 CHEM_SPECIES_MGLOO             | Concentration for sp | xyz C | varies
 CHEM_SPECIES_PRN1              | Concentration for sp | xyz C | varies
 CHEM_SPECIES_MGLYOO            | Concentration for sp | xyz C | varies
 CHEM_SPECIES_IEPOXOO           | Concentration for sp | xyz C | varies
 CHEM_SPECIES_CH3CHOO           | Concentration for sp | xyz C | varies
 CHEM_SPECIES_GAOO              | Concentration for sp | xyz C | varies
 CHEM_SPECIES_ISNOOB            | Concentration for sp | xyz C | varies
 CHEM_SPECIES_MVKOO             | Concentration for sp | xyz C | varies
 CHEM_SPECIES_ISNOHOO           | Concentration for sp | xyz C | varies
 CHEM_SPECIES_ROH               | Concentration for sp | xyz C | varies
 CHEM_SPECIES_MACRNO2           | Concentration for sp | xyz C | varies
 CHEM_SPECIES_H                 | Concentration for sp | xyz C | varies
 CHEM_SPECIES_DIBOO             | Concentration for sp | xyz C | varies
 CHEM_SPECIES_MOBAOO            | Concentration for sp | xyz C | varies
 CHEM_SPECIES_INPN              | Concentration for sp | xyz C | varies
 CHEM_SPECIES_MRP               | Concentration for sp | xyz C | varies
 CHEM_SPECIES_MAOP              | Concentration for sp | xyz C | varies
 CHEM_SPECIES_ISNP              | Concentration for sp | xyz C | varies
 CHEM_SPECIES_DHMOB             | Concentration for sp | xyz C | varies
 CHEM_SPECIES_ATOOH             | Concentration for sp | xyz C | varies
 CHEM_SPECIES_VRP               | Concentration for sp | xyz C | varies
 CHEM_SPECIES_HPC52O2           | Concentration for sp | xyz C | varies
 CHEM_SPECIES_IAP               | Concentration for sp | xyz C | varies
 CHEM_SPECIES_DHPCARP           | Concentration for sp | xyz C | varies
 CHEM_SPECIES_R4P               | Concentration for sp | xyz C | varies
 CHEM_SPECIES_PIP               | Concentration for sp | xyz C | varies
 CHEM_SPECIES_PRPN              | Concentration for sp | xyz C | varies
 CHEM_SPECIES_PP                | Concentration for sp | xyz C | varies
 CHEM_SPECIES_RP                | Concentration for sp | xyz C | varies
 CHEM_SPECIES_RB3P              | Concentration for sp | xyz C | varies
 CHEM_SPECIES_RA3P              | Concentration for sp | xyz C | varies
 CHEM_SPECIES_ETP               | Concentration for sp | xyz C | varies
 CHEM_SPECIES_IMAO3             | Concentration for sp | xyz C | varies
 CHEM_SPECIES_XRO2              | Concentration for sp | xyz C | varies
 CHEM_SPECIES_N                 | Concentration for sp | xyz C | varies
 CHEM_SPECIES_BRO2              | Concentration for sp | xyz C | varies
 CHEM_SPECIES_TRO2              | Concentration for sp | xyz C | varies
 CHEM_SPECIES_PMNN              | Concentration for sp | xyz C | varies
 CHEM_SPECIES_DHDC              | Concentration for sp | xyz C | varies
 CHEM_SPECIES_PH2O2             | Concentration for sp | xyz C | varies
 CHEM_SPECIES_LCH4              | Concentration for sp | xyz C | varies
 CHEM_SPECIES_PSO4              | Concentration for sp | xyz C | varies
 CHEM_SPECIES_LCO               | Concentration for sp | xyz C | varies
 CHEM_SPECIES_PCO               | Concentration for sp | xyz C | varies
 CHEM_SPECIES_LOX               | Concentration for sp | xyz C | varies
 CHEM_SPECIES_POX               | Concentration for sp | xyz C | varies
 CHEM_SPECIES_SO4H2             | Concentration for sp | xyz C | varies
 CHEM_SPECIES_SO4H1             | Concentration for sp | xyz C | varies
 CHEM_SPECIES_PYAC              | Concentration for sp | xyz C | varies
 CHEM_SPECIES_LXRO2N            | Concentration for sp | xyz C | varies
 CHEM_SPECIES_LXRO2H            | Concentration for sp | xyz C | varies
 CHEM_SPECIES_LTRO2N            | Concentration for sp | xyz C | varies
 CHEM_SPECIES_LTRO2H            | Concentration for sp | xyz C | varies
 CHEM_SPECIES_LISOPNO3          | Concentration for sp | xyz C | varies
 CHEM_SPECIES_LISOPOH           | Concentration for sp | xyz C | varies
 CHEM_SPECIES_LBRO2N            | Concentration for sp | xyz C | varies
 CHEM_SPECIES_LBRO2H            | Concentration for sp | xyz C | varies
 CHEM_SPECIES_CO2               | Concentration for sp | xyz C | varies
 CHEM_SPECIES_PFE               | Concentration for sp | xyz C | varies
 CHEM_SPECIES_AERI              | Concentration for sp | xyz C | varies
 CHEM_SPECIES_ISALC             | Concentration for sp | xyz C | varies
 CHEM_SPECIES_ISALA             | Concentration for sp | xyz C | varies
 CHEM_SPECIES_I2O4              | Concentration for sp | xyz C | varies
 CHEM_SPECIES_I2O3              | Concentration for sp | xyz C | varies
 CHEM_SPECIES_I2O2              | Concentration for sp | xyz C | varies
 CHEM_SPECIES_IONO2             | Concentration for sp | xyz C | varies
 CHEM_SPECIES_IONO              | Concentration for sp | xyz C | varies
 CHEM_SPECIES_INO               | Concentration for sp | xyz C | varies
 CHEM_SPECIES_OIO               | Concentration for sp | xyz C | varies
 CHEM_SPECIES_HI                | Concentration for sp | xyz C | varies
 CHEM_SPECIES_IO                | Concentration for sp | xyz C | varies
 CHEM_SPECIES_I                 | Concentration for sp | xyz C | varies
 CHEM_SPECIES_ICL               | Concentration for sp | xyz C | varies
 CHEM_SPECIES_IBR               | Concentration for sp | xyz C | varies
 CHEM_SPECIES_I2                | Concentration for sp | xyz C | varies
 CHEM_SPECIES_HOI               | Concentration for sp | xyz C | varies
 CHEM_SPECIES_CH2IBR            | Concentration for sp | xyz C | varies
 CHEM_SPECIES_CH2ICL            | Concentration for sp | xyz C | varies
 CHEM_SPECIES_CH2I2             | Concentration for sp | xyz C | varies
 CHEM_SPECIES_CH3I              | Concentration for sp | xyz C | varies
 CHEM_SPECIES_CH2CL2            | Concentration for sp | xyz C | varies
 CHEM_SPECIES_CHCL3             | Concentration for sp | xyz C | varies
 CHEM_SPECIES_BRSALC            | Concentration for sp | xyz C | varies
 CHEM_SPECIES_BRSALA            | Concentration for sp | xyz C | varies
 CHEM_SPECIES_H2O               | Concentration for sp | xyz C | varies
 CHEM_SPECIES_CL2O2             | Concentration for sp | xyz C | varies
 CHEM_SPECIES_CL2               | Concentration for sp | xyz C | varies
 CHEM_SPECIES_OCLO              | Concentration for sp | xyz C | varies
 CHEM_SPECIES_CLOO              | Concentration for sp | xyz C | varies
 CHEM_SPECIES_CLNO2             | Concentration for sp | xyz C | varies
 CHEM_SPECIES_CLNO3             | Concentration for sp | xyz C | varies
 CHEM_SPECIES_HOCL              | Concentration for sp | xyz C | varies
 CHEM_SPECIES_CLO               | Concentration for sp | xyz C | varies
 CHEM_SPECIES_CL                | Concentration for sp | xyz C | varies
 CHEM_SPECIES_H2402             | Concentration for sp | xyz C | varies
 CHEM_SPECIES_H1301             | Concentration for sp | xyz C | varies
 CHEM_SPECIES_H1211             | Concentration for sp | xyz C | varies
 CHEM_SPECIES_HCFC22            | Concentration for sp | xyz C | varies
 CHEM_SPECIES_CFC12             | Concentration for sp | xyz C | varies
 CHEM_SPECIES_CFC11             | Concentration for sp | xyz C | varies
 CHEM_SPECIES_HCFC142B          | Concentration for sp | xyz C | varies
 CHEM_SPECIES_HCFC141B          | Concentration for sp | xyz C | varies
 CHEM_SPECIES_HCFC123           | Concentration for sp | xyz C | varies
 CHEM_SPECIES_CFC115            | Concentration for sp | xyz C | varies
 CHEM_SPECIES_CFC114            | Concentration for sp | xyz C | varies
 CHEM_SPECIES_CFC113            | Concentration for sp | xyz C | varies
 CHEM_SPECIES_CH3CCL3           | Concentration for sp | xyz C | varies
 CHEM_SPECIES_CH3CL             | Concentration for sp | xyz C | varies
 CHEM_SPECIES_CCL4              | Concentration for sp | xyz C | varies
 CHEM_SPECIES_HCL               | Concentration for sp | xyz C | varies
 CHEM_SPECIES_BRCL              | Concentration for sp | xyz C | varies
 CHEM_SPECIES_CH4               | Concentration for sp | xyz C | varies
 CHEM_SPECIES_OCS               | Concentration for sp | xyz C | varies
 CHEM_SPECIES_N2O               | Concentration for sp | xyz C | varies
 CHEM_SPECIES_HC187             | Concentration for sp | xyz C | varies
 CHEM_SPECIES_IPMN              | Concentration for sp | xyz C | varies
 CHEM_SPECIES_INDIOL            | Concentration for sp | xyz C | varies
 CHEM_SPECIES_MONITA            | Concentration for sp | xyz C | varies
 CHEM_SPECIES_IONITA            | Concentration for sp | xyz C | varies
 CHEM_SPECIES_HONIT             | Concentration for sp | xyz C | varies
 CHEM_SPECIES_MONITU            | Concentration for sp | xyz C | varies
 CHEM_SPECIES_MONITS            | Concentration for sp | xyz C | varies
 CHEM_SPECIES_ISN1OA            | Concentration for sp | xyz C | varies
 CHEM_SPECIES_ISN1OG            | Concentration for sp | xyz C | varies
 CHEM_SPECIES_LVOCOA            | Concentration for sp | xyz C | varies
 CHEM_SPECIES_LVOC              | Concentration for sp | xyz C | varies
 CHEM_SPECIES_SOAMG             | Concentration for sp | xyz C | varies
 CHEM_SPECIES_SOAGX             | Concentration for sp | xyz C | varies
 CHEM_SPECIES_SOAME             | Concentration for sp | xyz C | varies
 CHEM_SPECIES_SOAIE             | Concentration for sp | xyz C | varies
 CHEM_SPECIES_IMAE              | Concentration for sp | xyz C | varies
 CHEM_SPECIES_RIPD              | Concentration for sp | xyz C | varies
 CHEM_SPECIES_RIPB              | Concentration for sp | xyz C | varies
 CHEM_SPECIES_RIPA              | Concentration for sp | xyz C | varies
 CHEM_SPECIES_ISN1              | Concentration for sp | xyz C | varies
 CHEM_SPECIES_IEPOXD            | Concentration for sp | xyz C | varies
 CHEM_SPECIES_IEPOXB            | Concentration for sp | xyz C | varies
 CHEM_SPECIES_IEPOXA            | Concentration for sp | xyz C | varies
 CHEM_SPECIES_HCOOH             | Concentration for sp | xyz C | varies
 CHEM_SPECIES_ETHLN             | Concentration for sp | xyz C | varies
 CHEM_SPECIES_DHDN              | Concentration for sp | xyz C | varies
 CHEM_SPECIES_HPALD             | Concentration for sp | xyz C | varies
 CHEM_SPECIES_ACTA              | Concentration for sp | xyz C | varies
 CHEM_SPECIES_GLYX              | Concentration for sp | xyz C | varies
 CHEM_SPECIES_MGLY              | Concentration for sp | xyz C | varies
 CHEM_SPECIES_EOH               | Concentration for sp | xyz C | varies
 CHEM_SPECIES_SOAS              | Concentration for sp | xyz C | varies
 CHEM_SPECIES_SOAP              | Concentration for sp | xyz C | varies
 CHEM_SPECIES_MTPO              | Concentration for sp | xyz C | varies
 CHEM_SPECIES_LIMO              | Concentration for sp | xyz C | varies
 CHEM_SPECIES_MTPA              | Concentration for sp | xyz C | varies
 CHEM_SPECIES_XYLE              | Concentration for sp | xyz C | varies
 CHEM_SPECIES_TOLU              | Concentration for sp | xyz C | varies
 CHEM_SPECIES_BENZ              | Concentration for sp | xyz C | varies
 CHEM_SPECIES_HNO2              | Concentration for sp | xyz C | varies
 CHEM_SPECIES_NO3               | Concentration for sp | xyz C | varies
 CHEM_SPECIES_NO2               | Concentration for sp | xyz C | varies
 CHEM_SPECIES_MAP               | Concentration for sp | xyz C | varies
 CHEM_SPECIES_MACRN             | Concentration for sp | xyz C | varies
 CHEM_SPECIES_MVKN              | Concentration for sp | xyz C | varies
 CHEM_SPECIES_GLYC              | Concentration for sp | xyz C | varies
 CHEM_SPECIES_HAC               | Concentration for sp | xyz C | varies
 CHEM_SPECIES_PROPNN            | Concentration for sp | xyz C | varies
 CHEM_SPECIES_MOBA              | Concentration for sp | xyz C | varies
 CHEM_SPECIES_ISOPNB            | Concentration for sp | xyz C | varies
 CHEM_SPECIES_ISOPND            | Concentration for sp | xyz C | varies
 CHEM_SPECIES_MPN               | Concentration for sp | xyz C | varies
 CHEM_SPECIES_CH3BR             | Concentration for sp | xyz C | varies
 CHEM_SPECIES_CH2BR2            | Concentration for sp | xyz C | varies
 CHEM_SPECIES_CHBR3             | Concentration for sp | xyz C | varies
 CHEM_SPECIES_BRNO3             | Concentration for sp | xyz C | varies
 CHEM_SPECIES_BRNO2             | Concentration for sp | xyz C | varies
 CHEM_SPECIES_HBR               | Concentration for sp | xyz C | varies
 CHEM_SPECIES_HOBR              | Concentration for sp | xyz C | varies
 CHEM_SPECIES_BRO               | Concentration for sp | xyz C | varies
 CHEM_SPECIES_BR                | Concentration for sp | xyz C | varies
 CHEM_SPECIES_BR2               | Concentration for sp | xyz C | varies
 CHEM_SPECIES_SALC              | Concentration for sp | xyz C | varies
 CHEM_SPECIES_SALA              | Concentration for sp | xyz C | varies
 CHEM_SPECIES_DST4              | Concentration for sp | xyz C | varies
 CHEM_SPECIES_DST3              | Concentration for sp | xyz C | varies
 CHEM_SPECIES_DST2              | Concentration for sp | xyz C | varies
 CHEM_SPECIES_DST1              | Concentration for sp | xyz C | varies
 CHEM_SPECIES_OCPO              | Concentration for sp | xyz C | varies
 CHEM_SPECIES_BCPO              | Concentration for sp | xyz C | varies
 CHEM_SPECIES_OCPI              | Concentration for sp | xyz C | varies
 CHEM_SPECIES_BCPI              | Concentration for sp | xyz C | varies
 CHEM_SPECIES_NITS              | Concentration for sp | xyz C | varies
 CHEM_SPECIES_NIT               | Concentration for sp | xyz C | varies
 CHEM_SPECIES_NH4               | Concentration for sp | xyz C | varies
 CHEM_SPECIES_NH3               | Concentration for sp | xyz C | varies
 CHEM_SPECIES_MSA               | Concentration for sp | xyz C | varies
 CHEM_SPECIES_SO4S              | Concentration for sp | xyz C | varies
 CHEM_SPECIES_SO4               | Concentration for sp | xyz C | varies
 CHEM_SPECIES_SO2               | Concentration for sp | xyz C | varies
 CHEM_SPECIES_DMS               | Concentration for sp | xyz C | varies
 CHEM_SPECIES_MP                | Concentration for sp | xyz C | varies
 CHEM_SPECIES_HNO4              | Concentration for sp | xyz C | varies
 CHEM_SPECIES_N2O5              | Concentration for sp | xyz C | varies
 CHEM_SPECIES_C2H6              | Concentration for sp | xyz C | varies
 CHEM_SPECIES_CH2O              | Concentration for sp | xyz C | varies
 CHEM_SPECIES_C3H8              | Concentration for sp | xyz C | varies
 CHEM_SPECIES_PRPE              | Concentration for sp | xyz C | varies
 CHEM_SPECIES_R4N2              | Concentration for sp | xyz C | varies
 CHEM_SPECIES_PPN               | Concentration for sp | xyz C | varies
 CHEM_SPECIES_NPMN              | Concentration for sp | xyz C | varies
 CHEM_SPECIES_MACR              | Concentration for sp | xyz C | varies
 CHEM_SPECIES_MVK               | Concentration for sp | xyz C | varies
 CHEM_SPECIES_RCHO              | Concentration for sp | xyz C | varies
 CHEM_SPECIES_ALD2              | Concentration for sp | xyz C | varies
 CHEM_SPECIES_MEK               | Concentration for sp | xyz C | varies
 CHEM_SPECIES_ACET              | Concentration for sp | xyz C | varies
 CHEM_SPECIES_H2O2              | Concentration for sp | xyz C | varies
 CHEM_SPECIES_HNO3              | Concentration for sp | xyz C | varies
 CHEM_SPECIES_ISOP              | Concentration for sp | xyz C | varies
 CHEM_SPECIES_ALK4              | Concentration for sp | xyz C | varies
 CHEM_SPECIES_CO                | Concentration for sp | xyz C | varies
 CHEM_SPECIES_PAN               | Concentration for sp | xyz C | varies
 CHEM_SPECIES_O3                | Concentration for sp | xyz C | varies
 CHEM_SPECIES_NO                | Concentration for sp | xyz C | varies
 ###############################################################################

Allocating the following fields of the State_Diag object:
===============================================================================
 State_Diag%SpeciesRst            is registered as: SpeciesRst
 State_Diag%DryDepChm             is registered as: DryDepChm
 State_Diag%DryDepMix             is registered as: DryDepMix
 State_Diag%DryDep                is registered as: DryDep

Registered variables contained within the State_Diag object:
===============================================================================
 DRYDEP_PFE                     | Dry deposition flux  | xy    | molec cm-2 s-1
 DRYDEP_AERI                    | Dry deposition flux  | xy    | molec cm-2 s-1
 DRYDEP_ISALC                   | Dry deposition flux  | xy    | molec cm-2 s-1
 DRYDEP_ISALA                   | Dry deposition flux  | xy    | molec cm-2 s-1
 DRYDEP_I2O4                    | Dry deposition flux  | xy    | molec cm-2 s-1
 DRYDEP_I2O3                    | Dry deposition flux  | xy    | molec cm-2 s-1
 DRYDEP_I2O2                    | Dry deposition flux  | xy    | molec cm-2 s-1
 DRYDEP_IONO2                   | Dry deposition flux  | xy    | molec cm-2 s-1
 DRYDEP_IONO                    | Dry deposition flux  | xy    | molec cm-2 s-1
 DRYDEP_HI                      | Dry deposition flux  | xy    | molec cm-2 s-1
 DRYDEP_ICL                     | Dry deposition flux  | xy    | molec cm-2 s-1
 DRYDEP_IBR                     | Dry deposition flux  | xy    | molec cm-2 s-1
 DRYDEP_I2                      | Dry deposition flux  | xy    | molec cm-2 s-1
 DRYDEP_HOI                     | Dry deposition flux  | xy    | molec cm-2 s-1
 DRYDEP_BRSALC                  | Dry deposition flux  | xy    | molec cm-2 s-1
 DRYDEP_BRSALA                  | Dry deposition flux  | xy    | molec cm-2 s-1
 DRYDEP_CLNO3                   | Dry deposition flux  | xy    | molec cm-2 s-1
 DRYDEP_HOCL                    | Dry deposition flux  | xy    | molec cm-2 s-1
 DRYDEP_HCL                     | Dry deposition flux  | xy    | molec cm-2 s-1
 DRYDEP_HC187                   | Dry deposition flux  | xy    | molec cm-2 s-1
 DRYDEP_IPMN                    | Dry deposition flux  | xy    | molec cm-2 s-1
 DRYDEP_INDIOL                  | Dry deposition flux  | xy    | molec cm-2 s-1
 DRYDEP_MONITA                  | Dry deposition flux  | xy    | molec cm-2 s-1
 DRYDEP_IONITA                  | Dry deposition flux  | xy    | molec cm-2 s-1
 DRYDEP_HONIT                   | Dry deposition flux  | xy    | molec cm-2 s-1
 DRYDEP_MONITU                  | Dry deposition flux  | xy    | molec cm-2 s-1
 DRYDEP_MONITS                  | Dry deposition flux  | xy    | molec cm-2 s-1
 DRYDEP_ISN1OA                  | Dry deposition flux  | xy    | molec cm-2 s-1
 DRYDEP_ISN1OG                  | Dry deposition flux  | xy    | molec cm-2 s-1
 DRYDEP_LVOCOA                  | Dry deposition flux  | xy    | molec cm-2 s-1
 DRYDEP_LVOC                    | Dry deposition flux  | xy    | molec cm-2 s-1
 DRYDEP_SOAMG                   | Dry deposition flux  | xy    | molec cm-2 s-1
 DRYDEP_SOAGX                   | Dry deposition flux  | xy    | molec cm-2 s-1
 DRYDEP_SOAME                   | Dry deposition flux  | xy    | molec cm-2 s-1
 DRYDEP_SOAIE                   | Dry deposition flux  | xy    | molec cm-2 s-1
 DRYDEP_IMAE                    | Dry deposition flux  | xy    | molec cm-2 s-1
 DRYDEP_RIPD                    | Dry deposition flux  | xy    | molec cm-2 s-1
 DRYDEP_RIPB                    | Dry deposition flux  | xy    | molec cm-2 s-1
 DRYDEP_RIPA                    | Dry deposition flux  | xy    | molec cm-2 s-1
 DRYDEP_ISN1                    | Dry deposition flux  | xy    | molec cm-2 s-1
 DRYDEP_IEPOXD                  | Dry deposition flux  | xy    | molec cm-2 s-1
 DRYDEP_IEPOXB                  | Dry deposition flux  | xy    | molec cm-2 s-1
 DRYDEP_IEPOXA                  | Dry deposition flux  | xy    | molec cm-2 s-1
 DRYDEP_HCOOH                   | Dry deposition flux  | xy    | molec cm-2 s-1
 DRYDEP_ETHLN                   | Dry deposition flux  | xy    | molec cm-2 s-1
 DRYDEP_DHDN                    | Dry deposition flux  | xy    | molec cm-2 s-1
 DRYDEP_HPALD                   | Dry deposition flux  | xy    | molec cm-2 s-1
 DRYDEP_ACTA                    | Dry deposition flux  | xy    | molec cm-2 s-1
 DRYDEP_GLYX                    | Dry deposition flux  | xy    | molec cm-2 s-1
 DRYDEP_MGLY                    | Dry deposition flux  | xy    | molec cm-2 s-1
 DRYDEP_EOH                     | Dry deposition flux  | xy    | molec cm-2 s-1
 DRYDEP_SOAS                    | Dry deposition flux  | xy    | molec cm-2 s-1
 DRYDEP_MTPO                    | Dry deposition flux  | xy    | molec cm-2 s-1
 DRYDEP_LIMO                    | Dry deposition flux  | xy    | molec cm-2 s-1
 DRYDEP_MTPA                    | Dry deposition flux  | xy    | molec cm-2 s-1
 DRYDEP_NO2                     | Dry deposition flux  | xy    | molec cm-2 s-1
 DRYDEP_MAP                     | Dry deposition flux  | xy    | molec cm-2 s-1
 DRYDEP_MACRN                   | Dry deposition flux  | xy    | molec cm-2 s-1
 DRYDEP_MVKN                    | Dry deposition flux  | xy    | molec cm-2 s-1
 DRYDEP_GLYC                    | Dry deposition flux  | xy    | molec cm-2 s-1
 DRYDEP_HAC                     | Dry deposition flux  | xy    | molec cm-2 s-1
 DRYDEP_PROPNN                  | Dry deposition flux  | xy    | molec cm-2 s-1
 DRYDEP_ISOPNB                  | Dry deposition flux  | xy    | molec cm-2 s-1
 DRYDEP_ISOPND                  | Dry deposition flux  | xy    | molec cm-2 s-1
 DRYDEP_BRNO3                   | Dry deposition flux  | xy    | molec cm-2 s-1
 DRYDEP_HBR                     | Dry deposition flux  | xy    | molec cm-2 s-1
 DRYDEP_HOBR                    | Dry deposition flux  | xy    | molec cm-2 s-1
 DRYDEP_BR2                     | Dry deposition flux  | xy    | molec cm-2 s-1
 DRYDEP_SALC                    | Dry deposition flux  | xy    | molec cm-2 s-1
 DRYDEP_SALA                    | Dry deposition flux  | xy    | molec cm-2 s-1
 DRYDEP_DST4                    | Dry deposition flux  | xy    | molec cm-2 s-1
 DRYDEP_DST3                    | Dry deposition flux  | xy    | molec cm-2 s-1
 DRYDEP_DST2                    | Dry deposition flux  | xy    | molec cm-2 s-1
 DRYDEP_DST1                    | Dry deposition flux  | xy    | molec cm-2 s-1
 DRYDEP_OCPO                    | Dry deposition flux  | xy    | molec cm-2 s-1
 DRYDEP_BCPO                    | Dry deposition flux  | xy    | molec cm-2 s-1
 DRYDEP_OCPI                    | Dry deposition flux  | xy    | molec cm-2 s-1
 DRYDEP_BCPI                    | Dry deposition flux  | xy    | molec cm-2 s-1
 DRYDEP_NITS                    | Dry deposition flux  | xy    | molec cm-2 s-1
 DRYDEP_NIT                     | Dry deposition flux  | xy    | molec cm-2 s-1
 DRYDEP_NH4                     | Dry deposition flux  | xy    | molec cm-2 s-1
 DRYDEP_NH3                     | Dry deposition flux  | xy    | molec cm-2 s-1
 DRYDEP_MSA                     | Dry deposition flux  | xy    | molec cm-2 s-1
 DRYDEP_SO4S                    | Dry deposition flux  | xy    | molec cm-2 s-1
 DRYDEP_SO4                     | Dry deposition flux  | xy    | molec cm-2 s-1
 DRYDEP_SO2                     | Dry deposition flux  | xy    | molec cm-2 s-1
 DRYDEP_N2O5                    | Dry deposition flux  | xy    | molec cm-2 s-1
 DRYDEP_CH2O                    | Dry deposition flux  | xy    | molec cm-2 s-1
 DRYDEP_R4N2                    | Dry deposition flux  | xy    | molec cm-2 s-1
 DRYDEP_PPN                     | Dry deposition flux  | xy    | molec cm-2 s-1
 DRYDEP_NPMN                    | Dry deposition flux  | xy    | molec cm-2 s-1
 DRYDEP_MACR                    | Dry deposition flux  | xy    | molec cm-2 s-1
 DRYDEP_MVK                     | Dry deposition flux  | xy    | molec cm-2 s-1
 DRYDEP_ALD2                    | Dry deposition flux  | xy    | molec cm-2 s-1
 DRYDEP_ACET                    | Dry deposition flux  | xy    | molec cm-2 s-1
 DRYDEP_H2O2                    | Dry deposition flux  | xy    | molec cm-2 s-1
 DRYDEP_HNO3                    | Dry deposition flux  | xy    | molec cm-2 s-1
 DRYDEP_PAN                     | Dry deposition flux  | xy    | molec cm-2 s-1
 DRYDEP_O3                      | Dry deposition flux  | xy    | molec cm-2 s-1
 DRYDEPMIX_PFE                  | Dry deposition flux  | xy    | molec cm-2 s-1
 DRYDEPMIX_AERI                 | Dry deposition flux  | xy    | molec cm-2 s-1
 DRYDEPMIX_ISALC                | Dry deposition flux  | xy    | molec cm-2 s-1
 DRYDEPMIX_ISALA                | Dry deposition flux  | xy    | molec cm-2 s-1
 DRYDEPMIX_I2O4                 | Dry deposition flux  | xy    | molec cm-2 s-1
 DRYDEPMIX_I2O3                 | Dry deposition flux  | xy    | molec cm-2 s-1
 DRYDEPMIX_I2O2                 | Dry deposition flux  | xy    | molec cm-2 s-1
 DRYDEPMIX_IONO2                | Dry deposition flux  | xy    | molec cm-2 s-1
 DRYDEPMIX_IONO                 | Dry deposition flux  | xy    | molec cm-2 s-1
 DRYDEPMIX_HI                   | Dry deposition flux  | xy    | molec cm-2 s-1
 DRYDEPMIX_ICL                  | Dry deposition flux  | xy    | molec cm-2 s-1
 DRYDEPMIX_IBR                  | Dry deposition flux  | xy    | molec cm-2 s-1
 DRYDEPMIX_I2                   | Dry deposition flux  | xy    | molec cm-2 s-1
 DRYDEPMIX_HOI                  | Dry deposition flux  | xy    | molec cm-2 s-1
 DRYDEPMIX_BRSALC               | Dry deposition flux  | xy    | molec cm-2 s-1
 DRYDEPMIX_BRSALA               | Dry deposition flux  | xy    | molec cm-2 s-1
 DRYDEPMIX_CLNO3                | Dry deposition flux  | xy    | molec cm-2 s-1
 DRYDEPMIX_HOCL                 | Dry deposition flux  | xy    | molec cm-2 s-1
 DRYDEPMIX_HCL                  | Dry deposition flux  | xy    | molec cm-2 s-1
 DRYDEPMIX_HC187                | Dry deposition flux  | xy    | molec cm-2 s-1
 DRYDEPMIX_IPMN                 | Dry deposition flux  | xy    | molec cm-2 s-1
 DRYDEPMIX_INDIOL               | Dry deposition flux  | xy    | molec cm-2 s-1
 DRYDEPMIX_MONITA               | Dry deposition flux  | xy    | molec cm-2 s-1
 DRYDEPMIX_IONITA               | Dry deposition flux  | xy    | molec cm-2 s-1
 DRYDEPMIX_HONIT                | Dry deposition flux  | xy    | molec cm-2 s-1
 DRYDEPMIX_MONITU               | Dry deposition flux  | xy    | molec cm-2 s-1
 DRYDEPMIX_MONITS               | Dry deposition flux  | xy    | molec cm-2 s-1
 DRYDEPMIX_ISN1OA               | Dry deposition flux  | xy    | molec cm-2 s-1
 DRYDEPMIX_ISN1OG               | Dry deposition flux  | xy    | molec cm-2 s-1
 DRYDEPMIX_LVOCOA               | Dry deposition flux  | xy    | molec cm-2 s-1
 DRYDEPMIX_LVOC                 | Dry deposition flux  | xy    | molec cm-2 s-1
 DRYDEPMIX_SOAMG                | Dry deposition flux  | xy    | molec cm-2 s-1
 DRYDEPMIX_SOAGX                | Dry deposition flux  | xy    | molec cm-2 s-1
 DRYDEPMIX_SOAME                | Dry deposition flux  | xy    | molec cm-2 s-1
 DRYDEPMIX_SOAIE                | Dry deposition flux  | xy    | molec cm-2 s-1
 DRYDEPMIX_IMAE                 | Dry deposition flux  | xy    | molec cm-2 s-1
 DRYDEPMIX_RIPD                 | Dry deposition flux  | xy    | molec cm-2 s-1
 DRYDEPMIX_RIPB                 | Dry deposition flux  | xy    | molec cm-2 s-1
 DRYDEPMIX_RIPA                 | Dry deposition flux  | xy    | molec cm-2 s-1
 DRYDEPMIX_ISN1                 | Dry deposition flux  | xy    | molec cm-2 s-1
 DRYDEPMIX_IEPOXD               | Dry deposition flux  | xy    | molec cm-2 s-1
 DRYDEPMIX_IEPOXB               | Dry deposition flux  | xy    | molec cm-2 s-1
 DRYDEPMIX_IEPOXA               | Dry deposition flux  | xy    | molec cm-2 s-1
 DRYDEPMIX_HCOOH                | Dry deposition flux  | xy    | molec cm-2 s-1
 DRYDEPMIX_ETHLN                | Dry deposition flux  | xy    | molec cm-2 s-1
 DRYDEPMIX_DHDN                 | Dry deposition flux  | xy    | molec cm-2 s-1
 DRYDEPMIX_HPALD                | Dry deposition flux  | xy    | molec cm-2 s-1
 DRYDEPMIX_ACTA                 | Dry deposition flux  | xy    | molec cm-2 s-1
 DRYDEPMIX_GLYX                 | Dry deposition flux  | xy    | molec cm-2 s-1
 DRYDEPMIX_MGLY                 | Dry deposition flux  | xy    | molec cm-2 s-1
 DRYDEPMIX_EOH                  | Dry deposition flux  | xy    | molec cm-2 s-1
 DRYDEPMIX_SOAS                 | Dry deposition flux  | xy    | molec cm-2 s-1
 DRYDEPMIX_MTPO                 | Dry deposition flux  | xy    | molec cm-2 s-1
 DRYDEPMIX_LIMO                 | Dry deposition flux  | xy    | molec cm-2 s-1
 DRYDEPMIX_MTPA                 | Dry deposition flux  | xy    | molec cm-2 s-1
 DRYDEPMIX_NO2                  | Dry deposition flux  | xy    | molec cm-2 s-1
 DRYDEPMIX_MAP                  | Dry deposition flux  | xy    | molec cm-2 s-1
 DRYDEPMIX_MACRN                | Dry deposition flux  | xy    | molec cm-2 s-1
 DRYDEPMIX_MVKN                 | Dry deposition flux  | xy    | molec cm-2 s-1
 DRYDEPMIX_GLYC                 | Dry deposition flux  | xy    | molec cm-2 s-1
 DRYDEPMIX_HAC                  | Dry deposition flux  | xy    | molec cm-2 s-1
 DRYDEPMIX_PROPNN               | Dry deposition flux  | xy    | molec cm-2 s-1
 DRYDEPMIX_ISOPNB               | Dry deposition flux  | xy    | molec cm-2 s-1
 DRYDEPMIX_ISOPND               | Dry deposition flux  | xy    | molec cm-2 s-1
 DRYDEPMIX_BRNO3                | Dry deposition flux  | xy    | molec cm-2 s-1
 DRYDEPMIX_HBR                  | Dry deposition flux  | xy    | molec cm-2 s-1
 DRYDEPMIX_HOBR                 | Dry deposition flux  | xy    | molec cm-2 s-1
 DRYDEPMIX_BR2                  | Dry deposition flux  | xy    | molec cm-2 s-1
 DRYDEPMIX_SALC                 | Dry deposition flux  | xy    | molec cm-2 s-1
 DRYDEPMIX_SALA                 | Dry deposition flux  | xy    | molec cm-2 s-1
 DRYDEPMIX_DST4                 | Dry deposition flux  | xy    | molec cm-2 s-1
 DRYDEPMIX_DST3                 | Dry deposition flux  | xy    | molec cm-2 s-1
 DRYDEPMIX_DST2                 | Dry deposition flux  | xy    | molec cm-2 s-1
 DRYDEPMIX_DST1                 | Dry deposition flux  | xy    | molec cm-2 s-1
 DRYDEPMIX_OCPO                 | Dry deposition flux  | xy    | molec cm-2 s-1
 DRYDEPMIX_BCPO                 | Dry deposition flux  | xy    | molec cm-2 s-1
 DRYDEPMIX_OCPI                 | Dry deposition flux  | xy    | molec cm-2 s-1
 DRYDEPMIX_BCPI                 | Dry deposition flux  | xy    | molec cm-2 s-1
 DRYDEPMIX_NITS                 | Dry deposition flux  | xy    | molec cm-2 s-1
 DRYDEPMIX_NIT                  | Dry deposition flux  | xy    | molec cm-2 s-1
 DRYDEPMIX_NH4                  | Dry deposition flux  | xy    | molec cm-2 s-1
 DRYDEPMIX_NH3                  | Dry deposition flux  | xy    | molec cm-2 s-1
 DRYDEPMIX_MSA                  | Dry deposition flux  | xy    | molec cm-2 s-1
 DRYDEPMIX_SO4S                 | Dry deposition flux  | xy    | molec cm-2 s-1
 DRYDEPMIX_SO4                  | Dry deposition flux  | xy    | molec cm-2 s-1
 DRYDEPMIX_SO2                  | Dry deposition flux  | xy    | molec cm-2 s-1
 DRYDEPMIX_N2O5                 | Dry deposition flux  | xy    | molec cm-2 s-1
 DRYDEPMIX_CH2O                 | Dry deposition flux  | xy    | molec cm-2 s-1
 DRYDEPMIX_R4N2                 | Dry deposition flux  | xy    | molec cm-2 s-1
 DRYDEPMIX_PPN                  | Dry deposition flux  | xy    | molec cm-2 s-1
 DRYDEPMIX_NPMN                 | Dry deposition flux  | xy    | molec cm-2 s-1
 DRYDEPMIX_MACR                 | Dry deposition flux  | xy    | molec cm-2 s-1
 DRYDEPMIX_MVK                  | Dry deposition flux  | xy    | molec cm-2 s-1
 DRYDEPMIX_ALD2                 | Dry deposition flux  | xy    | molec cm-2 s-1
 DRYDEPMIX_ACET                 | Dry deposition flux  | xy    | molec cm-2 s-1
 DRYDEPMIX_H2O2                 | Dry deposition flux  | xy    | molec cm-2 s-1
 DRYDEPMIX_HNO3                 | Dry deposition flux  | xy    | molec cm-2 s-1
 DRYDEPMIX_PAN                  | Dry deposition flux  | xy    | molec cm-2 s-1
 DRYDEPMIX_O3                   | Dry deposition flux  | xy    | molec cm-2 s-1
 DRYDEPCHM_PFE                  | Dry deposition flux  | xy    | molec cm-2 s-1
 DRYDEPCHM_AERI                 | Dry deposition flux  | xy    | molec cm-2 s-1
 DRYDEPCHM_ISALC                | Dry deposition flux  | xy    | molec cm-2 s-1
 DRYDEPCHM_ISALA                | Dry deposition flux  | xy    | molec cm-2 s-1
 DRYDEPCHM_I2O4                 | Dry deposition flux  | xy    | molec cm-2 s-1
 DRYDEPCHM_I2O3                 | Dry deposition flux  | xy    | molec cm-2 s-1
 DRYDEPCHM_I2O2                 | Dry deposition flux  | xy    | molec cm-2 s-1
 DRYDEPCHM_IONO2                | Dry deposition flux  | xy    | molec cm-2 s-1
 DRYDEPCHM_IONO                 | Dry deposition flux  | xy    | molec cm-2 s-1
 DRYDEPCHM_HI                   | Dry deposition flux  | xy    | molec cm-2 s-1
 DRYDEPCHM_ICL                  | Dry deposition flux  | xy    | molec cm-2 s-1
 DRYDEPCHM_IBR                  | Dry deposition flux  | xy    | molec cm-2 s-1
 DRYDEPCHM_I2                   | Dry deposition flux  | xy    | molec cm-2 s-1
 DRYDEPCHM_HOI                  | Dry deposition flux  | xy    | molec cm-2 s-1
 DRYDEPCHM_BRSALC               | Dry deposition flux  | xy    | molec cm-2 s-1
 DRYDEPCHM_BRSALA               | Dry deposition flux  | xy    | molec cm-2 s-1
 DRYDEPCHM_CLNO3                | Dry deposition flux  | xy    | molec cm-2 s-1
 DRYDEPCHM_HOCL                 | Dry deposition flux  | xy    | molec cm-2 s-1
 DRYDEPCHM_HCL                  | Dry deposition flux  | xy    | molec cm-2 s-1
 DRYDEPCHM_HC187                | Dry deposition flux  | xy    | molec cm-2 s-1
 DRYDEPCHM_IPMN                 | Dry deposition flux  | xy    | molec cm-2 s-1
 DRYDEPCHM_INDIOL               | Dry deposition flux  | xy    | molec cm-2 s-1
 DRYDEPCHM_MONITA               | Dry deposition flux  | xy    | molec cm-2 s-1
 DRYDEPCHM_IONITA               | Dry deposition flux  | xy    | molec cm-2 s-1
 DRYDEPCHM_HONIT                | Dry deposition flux  | xy    | molec cm-2 s-1
 DRYDEPCHM_MONITU               | Dry deposition flux  | xy    | molec cm-2 s-1
 DRYDEPCHM_MONITS               | Dry deposition flux  | xy    | molec cm-2 s-1
 DRYDEPCHM_ISN1OA               | Dry deposition flux  | xy    | molec cm-2 s-1
 DRYDEPCHM_ISN1OG               | Dry deposition flux  | xy    | molec cm-2 s-1
 DRYDEPCHM_LVOCOA               | Dry deposition flux  | xy    | molec cm-2 s-1
 DRYDEPCHM_LVOC                 | Dry deposition flux  | xy    | molec cm-2 s-1
 DRYDEPCHM_SOAMG                | Dry deposition flux  | xy    | molec cm-2 s-1
 DRYDEPCHM_SOAGX                | Dry deposition flux  | xy    | molec cm-2 s-1
 DRYDEPCHM_SOAME                | Dry deposition flux  | xy    | molec cm-2 s-1
 DRYDEPCHM_SOAIE                | Dry deposition flux  | xy    | molec cm-2 s-1
 DRYDEPCHM_IMAE                 | Dry deposition flux  | xy    | molec cm-2 s-1
 DRYDEPCHM_RIPD                 | Dry deposition flux  | xy    | molec cm-2 s-1
 DRYDEPCHM_RIPB                 | Dry deposition flux  | xy    | molec cm-2 s-1
 DRYDEPCHM_RIPA                 | Dry deposition flux  | xy    | molec cm-2 s-1
 DRYDEPCHM_ISN1                 | Dry deposition flux  | xy    | molec cm-2 s-1
 DRYDEPCHM_IEPOXD               | Dry deposition flux  | xy    | molec cm-2 s-1
 DRYDEPCHM_IEPOXB               | Dry deposition flux  | xy    | molec cm-2 s-1
 DRYDEPCHM_IEPOXA               | Dry deposition flux  | xy    | molec cm-2 s-1
 DRYDEPCHM_HCOOH                | Dry deposition flux  | xy    | molec cm-2 s-1
 DRYDEPCHM_ETHLN                | Dry deposition flux  | xy    | molec cm-2 s-1
 DRYDEPCHM_DHDN                 | Dry deposition flux  | xy    | molec cm-2 s-1
 DRYDEPCHM_HPALD                | Dry deposition flux  | xy    | molec cm-2 s-1
 DRYDEPCHM_ACTA                 | Dry deposition flux  | xy    | molec cm-2 s-1
 DRYDEPCHM_GLYX                 | Dry deposition flux  | xy    | molec cm-2 s-1
 DRYDEPCHM_MGLY                 | Dry deposition flux  | xy    | molec cm-2 s-1
 DRYDEPCHM_EOH                  | Dry deposition flux  | xy    | molec cm-2 s-1
 DRYDEPCHM_SOAS                 | Dry deposition flux  | xy    | molec cm-2 s-1
 DRYDEPCHM_MTPO                 | Dry deposition flux  | xy    | molec cm-2 s-1
 DRYDEPCHM_LIMO                 | Dry deposition flux  | xy    | molec cm-2 s-1
 DRYDEPCHM_MTPA                 | Dry deposition flux  | xy    | molec cm-2 s-1
 DRYDEPCHM_NO2                  | Dry deposition flux  | xy    | molec cm-2 s-1
 DRYDEPCHM_MAP                  | Dry deposition flux  | xy    | molec cm-2 s-1
 DRYDEPCHM_MACRN                | Dry deposition flux  | xy    | molec cm-2 s-1
 DRYDEPCHM_MVKN                 | Dry deposition flux  | xy    | molec cm-2 s-1
 DRYDEPCHM_GLYC                 | Dry deposition flux  | xy    | molec cm-2 s-1
 DRYDEPCHM_HAC                  | Dry deposition flux  | xy    | molec cm-2 s-1
 DRYDEPCHM_PROPNN               | Dry deposition flux  | xy    | molec cm-2 s-1
 DRYDEPCHM_ISOPNB               | Dry deposition flux  | xy    | molec cm-2 s-1
 DRYDEPCHM_ISOPND               | Dry deposition flux  | xy    | molec cm-2 s-1
 DRYDEPCHM_BRNO3                | Dry deposition flux  | xy    | molec cm-2 s-1
 DRYDEPCHM_HBR                  | Dry deposition flux  | xy    | molec cm-2 s-1
 DRYDEPCHM_HOBR                 | Dry deposition flux  | xy    | molec cm-2 s-1
 DRYDEPCHM_BR2                  | Dry deposition flux  | xy    | molec cm-2 s-1
 DRYDEPCHM_SALC                 | Dry deposition flux  | xy    | molec cm-2 s-1
 DRYDEPCHM_SALA                 | Dry deposition flux  | xy    | molec cm-2 s-1
 DRYDEPCHM_DST4                 | Dry deposition flux  | xy    | molec cm-2 s-1
 DRYDEPCHM_DST3                 | Dry deposition flux  | xy    | molec cm-2 s-1
 DRYDEPCHM_DST2                 | Dry deposition flux  | xy    | molec cm-2 s-1
 DRYDEPCHM_DST1                 | Dry deposition flux  | xy    | molec cm-2 s-1
 DRYDEPCHM_OCPO                 | Dry deposition flux  | xy    | molec cm-2 s-1
 DRYDEPCHM_BCPO                 | Dry deposition flux  | xy    | molec cm-2 s-1
 DRYDEPCHM_OCPI                 | Dry deposition flux  | xy    | molec cm-2 s-1
 DRYDEPCHM_BCPI                 | Dry deposition flux  | xy    | molec cm-2 s-1
 DRYDEPCHM_NITS                 | Dry deposition flux  | xy    | molec cm-2 s-1
 DRYDEPCHM_NIT                  | Dry deposition flux  | xy    | molec cm-2 s-1
 DRYDEPCHM_NH4                  | Dry deposition flux  | xy    | molec cm-2 s-1
 DRYDEPCHM_NH3                  | Dry deposition flux  | xy    | molec cm-2 s-1
 DRYDEPCHM_MSA                  | Dry deposition flux  | xy    | molec cm-2 s-1
 DRYDEPCHM_SO4S                 | Dry deposition flux  | xy    | molec cm-2 s-1
 DRYDEPCHM_SO4                  | Dry deposition flux  | xy    | molec cm-2 s-1
 DRYDEPCHM_SO2                  | Dry deposition flux  | xy    | molec cm-2 s-1
 DRYDEPCHM_N2O5                 | Dry deposition flux  | xy    | molec cm-2 s-1
 DRYDEPCHM_CH2O                 | Dry deposition flux  | xy    | molec cm-2 s-1
 DRYDEPCHM_R4N2                 | Dry deposition flux  | xy    | molec cm-2 s-1
 DRYDEPCHM_PPN                  | Dry deposition flux  | xy    | molec cm-2 s-1
 DRYDEPCHM_NPMN                 | Dry deposition flux  | xy    | molec cm-2 s-1
 DRYDEPCHM_MACR                 | Dry deposition flux  | xy    | molec cm-2 s-1
 DRYDEPCHM_MVK                  | Dry deposition flux  | xy    | molec cm-2 s-1
 DRYDEPCHM_ALD2                 | Dry deposition flux  | xy    | molec cm-2 s-1
 DRYDEPCHM_ACET                 | Dry deposition flux  | xy    | molec cm-2 s-1
 DRYDEPCHM_H2O2                 | Dry deposition flux  | xy    | molec cm-2 s-1
 DRYDEPCHM_HNO3                 | Dry deposition flux  | xy    | molec cm-2 s-1
 DRYDEPCHM_PAN                  | Dry deposition flux  | xy    | molec cm-2 s-1
 DRYDEPCHM_O3                   | Dry deposition flux  | xy    | molec cm-2 s-1
 SPECIESRST_RCOOH               | Dry mixing ratio of  | xyz C | mol mol-1 dry
 SPECIESRST_O2                  | Dry mixing ratio of  | xyz C | mol mol-1 dry
 SPECIESRST_N2                  | Dry mixing ratio of  | xyz C | mol mol-1 dry
 SPECIESRST_MOH                 | Dry mixing ratio of  | xyz C | mol mol-1 dry
 SPECIESRST_H2                  | Dry mixing ratio of  | xyz C | mol mol-1 dry
 SPECIESRST_OH                  | Dry mixing ratio of  | xyz C | mol mol-1 dry
 SPECIESRST_HO2                 | Dry mixing ratio of  | xyz C | mol mol-1 dry
 SPECIESRST_O                   | Dry mixing ratio of  | xyz C | mol mol-1 dry
 SPECIESRST_O1D                 | Dry mixing ratio of  | xyz C | mol mol-1 dry
 SPECIESRST_MO2                 | Dry mixing ratio of  | xyz C | mol mol-1 dry
 SPECIESRST_MCO3                | Dry mixing ratio of  | xyz C | mol mol-1 dry
 SPECIESRST_MRO2                | Dry mixing ratio of  | xyz C | mol mol-1 dry
 SPECIESRST_R4O2                | Dry mixing ratio of  | xyz C | mol mol-1 dry
 SPECIESRST_INO2                | Dry mixing ratio of  | xyz C | mol mol-1 dry
 SPECIESRST_ETO2                | Dry mixing ratio of  | xyz C | mol mol-1 dry
 SPECIESRST_RIO2                | Dry mixing ratio of  | xyz C | mol mol-1 dry
 SPECIESRST_HC5                 | Dry mixing ratio of  | xyz C | mol mol-1 dry
 SPECIESRST_CH2OO               | Dry mixing ratio of  | xyz C | mol mol-1 dry
 SPECIESRST_VRO2                | Dry mixing ratio of  | xyz C | mol mol-1 dry
 SPECIESRST_NMAO3               | Dry mixing ratio of  | xyz C | mol mol-1 dry
 SPECIESRST_HC5OO               | Dry mixing ratio of  | xyz C | mol mol-1 dry
 SPECIESRST_PIO2                | Dry mixing ratio of  | xyz C | mol mol-1 dry
 SPECIESRST_ISOPNBO2            | Dry mixing ratio of  | xyz C | mol mol-1 dry
 SPECIESRST_KO2                 | Dry mixing ratio of  | xyz C | mol mol-1 dry
 SPECIESRST_OLNN                | Dry mixing ratio of  | xyz C | mol mol-1 dry
 SPECIESRST_OLND                | Dry mixing ratio of  | xyz C | mol mol-1 dry
 SPECIESRST_LIMO2               | Dry mixing ratio of  | xyz C | mol mol-1 dry
 SPECIESRST_RCO3                | Dry mixing ratio of  | xyz C | mol mol-1 dry
 SPECIESRST_ATO2                | Dry mixing ratio of  | xyz C | mol mol-1 dry
 SPECIESRST_MAOPO2              | Dry mixing ratio of  | xyz C | mol mol-1 dry
 SPECIESRST_R4N1                | Dry mixing ratio of  | xyz C | mol mol-1 dry
 SPECIESRST_MACROO              | Dry mixing ratio of  | xyz C | mol mol-1 dry
 SPECIESRST_B3O2                | Dry mixing ratio of  | xyz C | mol mol-1 dry
 SPECIESRST_ISOPNDO2            | Dry mixing ratio of  | xyz C | mol mol-1 dry
 SPECIESRST_PO2                 | Dry mixing ratio of  | xyz C | mol mol-1 dry
 SPECIESRST_ISNOOA              | Dry mixing ratio of  | xyz C | mol mol-1 dry
 SPECIESRST_MAN2                | Dry mixing ratio of  | xyz C | mol mol-1 dry
 SPECIESRST_A3O2                | Dry mixing ratio of  | xyz C | mol mol-1 dry
 SPECIESRST_MGLOO               | Dry mixing ratio of  | xyz C | mol mol-1 dry
 SPECIESRST_PRN1                | Dry mixing ratio of  | xyz C | mol mol-1 dry
 SPECIESRST_MGLYOO              | Dry mixing ratio of  | xyz C | mol mol-1 dry
 SPECIESRST_IEPOXOO             | Dry mixing ratio of  | xyz C | mol mol-1 dry
 SPECIESRST_CH3CHOO             | Dry mixing ratio of  | xyz C | mol mol-1 dry
 SPECIESRST_GAOO                | Dry mixing ratio of  | xyz C | mol mol-1 dry
 SPECIESRST_ISNOOB              | Dry mixing ratio of  | xyz C | mol mol-1 dry
 SPECIESRST_MVKOO               | Dry mixing ratio of  | xyz C | mol mol-1 dry
 SPECIESRST_ISNOHOO             | Dry mixing ratio of  | xyz C | mol mol-1 dry
 SPECIESRST_ROH                 | Dry mixing ratio of  | xyz C | mol mol-1 dry
 SPECIESRST_MACRNO2             | Dry mixing ratio of  | xyz C | mol mol-1 dry
 SPECIESRST_H                   | Dry mixing ratio of  | xyz C | mol mol-1 dry
 SPECIESRST_DIBOO               | Dry mixing ratio of  | xyz C | mol mol-1 dry
 SPECIESRST_MOBAOO              | Dry mixing ratio of  | xyz C | mol mol-1 dry
 SPECIESRST_INPN                | Dry mixing ratio of  | xyz C | mol mol-1 dry
 SPECIESRST_MRP                 | Dry mixing ratio of  | xyz C | mol mol-1 dry
 SPECIESRST_MAOP                | Dry mixing ratio of  | xyz C | mol mol-1 dry
 SPECIESRST_ISNP                | Dry mixing ratio of  | xyz C | mol mol-1 dry
 SPECIESRST_DHMOB               | Dry mixing ratio of  | xyz C | mol mol-1 dry
 SPECIESRST_ATOOH               | Dry mixing ratio of  | xyz C | mol mol-1 dry
 SPECIESRST_VRP                 | Dry mixing ratio of  | xyz C | mol mol-1 dry
 SPECIESRST_HPC52O2             | Dry mixing ratio of  | xyz C | mol mol-1 dry
 SPECIESRST_IAP                 | Dry mixing ratio of  | xyz C | mol mol-1 dry
 SPECIESRST_DHPCARP             | Dry mixing ratio of  | xyz C | mol mol-1 dry
 SPECIESRST_R4P                 | Dry mixing ratio of  | xyz C | mol mol-1 dry
 SPECIESRST_PIP                 | Dry mixing ratio of  | xyz C | mol mol-1 dry
 SPECIESRST_PRPN                | Dry mixing ratio of  | xyz C | mol mol-1 dry
 SPECIESRST_PP                  | Dry mixing ratio of  | xyz C | mol mol-1 dry
 SPECIESRST_RP                  | Dry mixing ratio of  | xyz C | mol mol-1 dry
 SPECIESRST_RB3P                | Dry mixing ratio of  | xyz C | mol mol-1 dry
 SPECIESRST_RA3P                | Dry mixing ratio of  | xyz C | mol mol-1 dry
 SPECIESRST_ETP                 | Dry mixing ratio of  | xyz C | mol mol-1 dry
 SPECIESRST_IMAO3               | Dry mixing ratio of  | xyz C | mol mol-1 dry
 SPECIESRST_XRO2                | Dry mixing ratio of  | xyz C | mol mol-1 dry
 SPECIESRST_N                   | Dry mixing ratio of  | xyz C | mol mol-1 dry
 SPECIESRST_BRO2                | Dry mixing ratio of  | xyz C | mol mol-1 dry
 SPECIESRST_TRO2                | Dry mixing ratio of  | xyz C | mol mol-1 dry
 SPECIESRST_PMNN                | Dry mixing ratio of  | xyz C | mol mol-1 dry
 SPECIESRST_DHDC                | Dry mixing ratio of  | xyz C | mol mol-1 dry
 SPECIESRST_PH2O2               | Dry mixing ratio of  | xyz C | mol mol-1 dry
 SPECIESRST_LCH4                | Dry mixing ratio of  | xyz C | mol mol-1 dry
 SPECIESRST_PSO4                | Dry mixing ratio of  | xyz C | mol mol-1 dry
 SPECIESRST_LCO                 | Dry mixing ratio of  | xyz C | mol mol-1 dry
 SPECIESRST_PCO                 | Dry mixing ratio of  | xyz C | mol mol-1 dry
 SPECIESRST_LOX                 | Dry mixing ratio of  | xyz C | mol mol-1 dry
 SPECIESRST_POX                 | Dry mixing ratio of  | xyz C | mol mol-1 dry
 SPECIESRST_SO4H2               | Dry mixing ratio of  | xyz C | mol mol-1 dry
 SPECIESRST_SO4H1               | Dry mixing ratio of  | xyz C | mol mol-1 dry
 SPECIESRST_PYAC                | Dry mixing ratio of  | xyz C | mol mol-1 dry
 SPECIESRST_LXRO2N              | Dry mixing ratio of  | xyz C | mol mol-1 dry
 SPECIESRST_LXRO2H              | Dry mixing ratio of  | xyz C | mol mol-1 dry
 SPECIESRST_LTRO2N              | Dry mixing ratio of  | xyz C | mol mol-1 dry
 SPECIESRST_LTRO2H              | Dry mixing ratio of  | xyz C | mol mol-1 dry
 SPECIESRST_LISOPNO3            | Dry mixing ratio of  | xyz C | mol mol-1 dry
 SPECIESRST_LISOPOH             | Dry mixing ratio of  | xyz C | mol mol-1 dry
 SPECIESRST_LBRO2N              | Dry mixing ratio of  | xyz C | mol mol-1 dry
 SPECIESRST_LBRO2H              | Dry mixing ratio of  | xyz C | mol mol-1 dry
 SPECIESRST_CO2                 | Dry mixing ratio of  | xyz C | mol mol-1 dry
 SPECIESRST_PFE                 | Dry mixing ratio of  | xyz C | mol mol-1 dry
 SPECIESRST_AERI                | Dry mixing ratio of  | xyz C | mol mol-1 dry
 SPECIESRST_ISALC               | Dry mixing ratio of  | xyz C | mol mol-1 dry
 SPECIESRST_ISALA               | Dry mixing ratio of  | xyz C | mol mol-1 dry
 SPECIESRST_I2O4                | Dry mixing ratio of  | xyz C | mol mol-1 dry
 SPECIESRST_I2O3                | Dry mixing ratio of  | xyz C | mol mol-1 dry
 SPECIESRST_I2O2                | Dry mixing ratio of  | xyz C | mol mol-1 dry
 SPECIESRST_IONO2               | Dry mixing ratio of  | xyz C | mol mol-1 dry
 SPECIESRST_IONO                | Dry mixing ratio of  | xyz C | mol mol-1 dry
 SPECIESRST_INO                 | Dry mixing ratio of  | xyz C | mol mol-1 dry
 SPECIESRST_OIO                 | Dry mixing ratio of  | xyz C | mol mol-1 dry
 SPECIESRST_HI                  | Dry mixing ratio of  | xyz C | mol mol-1 dry
 SPECIESRST_IO                  | Dry mixing ratio of  | xyz C | mol mol-1 dry
 SPECIESRST_I                   | Dry mixing ratio of  | xyz C | mol mol-1 dry
 SPECIESRST_ICL                 | Dry mixing ratio of  | xyz C | mol mol-1 dry
 SPECIESRST_IBR                 | Dry mixing ratio of  | xyz C | mol mol-1 dry
 SPECIESRST_I2                  | Dry mixing ratio of  | xyz C | mol mol-1 dry
 SPECIESRST_HOI                 | Dry mixing ratio of  | xyz C | mol mol-1 dry
 SPECIESRST_CH2IBR              | Dry mixing ratio of  | xyz C | mol mol-1 dry
 SPECIESRST_CH2ICL              | Dry mixing ratio of  | xyz C | mol mol-1 dry
 SPECIESRST_CH2I2               | Dry mixing ratio of  | xyz C | mol mol-1 dry
 SPECIESRST_CH3I                | Dry mixing ratio of  | xyz C | mol mol-1 dry
 SPECIESRST_CH2CL2              | Dry mixing ratio of  | xyz C | mol mol-1 dry
[...]
     - LINOZ_CHEM3: Doing LINOZ
---> DATE: 2016/07/01  UTC: 06:30  X-HRS:      6.500000
 ----------------------------------------------------- 
 -- Lagrange module (i_box,box_lon,box_lat,box_lev) -- 
0001   -0.10502E+0000    0.17878E+0000    0.20000E+0002
0002    0.55906E+0001    0.40385E+0001    0.20000E+0002
0003    0.10990E+0002    0.86760E+0001    0.20000E+0002
---> DATE: 2016/07/01  UTC: 06:40  X-HRS:      6.666667
 ----------------------------------------------------- 
 -- Lagrange module (i_box,box_lon,box_lat,box_lev) -- 
0001   -0.10944E+0000    0.18907E+0000    0.20000E+0002
0002    0.56064E+0001    0.40386E+0001    0.20000E+0002
0003    0.11007E+0002    0.86850E+0001    0.20000E+0002
     - DO_STRAT_CHEM: Linearized strat chemistry at 2016/07/01 06:40
     - LINOZ_CHEM3: Doing LINOZ
---> DATE: 2016/07/01  UTC: 06:50  X-HRS:      6.833333
 ----------------------------------------------------- 
 -- Lagrange module (i_box,box_lon,box_lat,box_lev) -- 
0001   -0.11387E+0000    0.19936E+0000    0.20000E+0002
0002    0.56222E+0001    0.40388E+0001    0.20000E+0002
0003    0.11025E+0002    0.86941E+0001    0.20000E+0002
---> DATE: 2016/07/01  UTC: 07:00  X-HRS:      7.000000
 ----------------------------------------------------- 
 -- Lagrange module (i_box,box_lon,box_lat,box_lev) -- 
0001   -0.11830E+0000    0.20965E+0000    0.20000E+0002
0002    0.56379E+0001    0.40390E+0001    0.20000E+0002
0003    0.11042E+0002    0.87031E+0001    0.20000E+0002
HEMCO: Opening /n/holylfs/EXTERNAL_REPOS/GEOS-CHEM/gcgrid/data/ExtData/GEOS_4x5/GEOS_FP/2016/07/GEOSFP.20160701.A1.4x5.nc
HEMCO: Opening /n/holylfs/EXTERNAL_REPOS/GEOS-CHEM/gcgrid/data/ExtData/GEOS_4x5/GEOS_FP/2016/07/GEOSFP.20160701.A3cld.4x5.nc
HEMCO: Opening /n/holylfs/EXTERNAL_REPOS/GEOS-CHEM/gcgrid/data/ExtData/GEOS_4x5/GEOS_FP/2016/07/GEOSFP.20160701.A3dyn.4x5.nc
HEMCO: Opening /n/holylfs/EXTERNAL_REPOS/GEOS-CHEM/gcgrid/data/ExtData/GEOS_4x5/GEOS_FP/2016/07/GEOSFP.20160701.A3mstC.4x5.nc
HEMCO: Opening /n/holylfs/EXTERNAL_REPOS/GEOS-CHEM/gcgrid/data/ExtData/GEOS_4x5/GEOS_FP/2016/07/GEOSFP.20160701.A3mstE.4x5.nc
HEMCO: Opening /n/holylfs/EXTERNAL_REPOS/GEOS-CHEM/gcgrid/data/ExtData/GEOS_4x5/GEOS_FP/2016/07/GEOSFP.20160701.I3.4x5.nc
     - Found all A1     met fields for 2016/07/01 07:30
     - DO_STRAT_CHEM: Linearized strat chemistry at 2016/07/01 07:00
     - LINOZ_CHEM3: Doing LINOZ
---> DATE: 2016/07/01  UTC: 07:10  X-HRS:      7.166667
 ----------------------------------------------------- 
 -- Lagrange module (i_box,box_lon,box_lat,box_lev) -- 
0001   -0.12272E+0000    0.21994E+0000    0.20000E+0002
0002    0.56537E+0001    0.40391E+0001    0.20000E+0002
0003    0.11059E+0002    0.87122E+0001    0.20000E+0002
---> DATE: 2016/07/01  UTC: 07:20  X-HRS:      7.333333
 ----------------------------------------------------- 
 -- Lagrange module (i_box,box_lon,box_lat,box_lev) -- 
0001   -0.12715E+0000    0.23023E+0000    0.20000E+0002
0002    0.56695E+0001    0.40393E+0001    0.20000E+0002
0003    0.11077E+0002    0.87213E+0001    0.20000E+0002
     - DO_STRAT_CHEM: Linearized strat chemistry at 2016/07/01 07:20
     - LINOZ_CHEM3: Doing LINOZ
---> DATE: 2016/07/01  UTC: 07:30  X-HRS:      7.500000
 ----------------------------------------------------- 
 -- Lagrange module (i_box,box_lon,box_lat,box_lev) -- 
0001   -0.13157E+0000    0.24052E+0000    0.20000E+0002
0002    0.56853E+0001    0.40394E+0001    0.20000E+0002
0003    0.11094E+0002    0.87303E+0001    0.20000E+0002
---> DATE: 2016/07/01  UTC: 07:40  X-HRS:      7.666667
 ----------------------------------------------------- 
 -- Lagrange module (i_box,box_lon,box_lat,box_lev) -- 
0001   -0.13600E+0000    0.25081E+0000    0.20000E+0002
0002    0.57011E+0001    0.40396E+0001    0.20000E+0002
0003    0.11111E+0002    0.87394E+0001    0.20000E+0002
     - DO_STRAT_CHEM: Linearized strat chemistry at 2016/07/01 07:40
     - LINOZ_CHEM3: Doing LINOZ
---> DATE: 2016/07/01  UTC: 07:50  X-HRS:      7.833333
 ----------------------------------------------------- 
 -- Lagrange module (i_box,box_lon,box_lat,box_lev) -- 
0001   -0.14042E+0000    0.26110E+0000    0.20000E+0002
0002    0.57169E+0001    0.40398E+0001    0.20000E+0002
0003    0.11128E+0002    0.87484E+0001    0.20000E+0002
---> DATE: 2016/07/01  UTC: 08:00  X-HRS:      8.000000
 ----------------------------------------------------- 
 -- Lagrange module (i_box,box_lon,box_lat,box_lev) -- 
0001   -0.14485E+0000    0.27139E+0000    0.20000E+0002
0002    0.57326E+0001    0.40399E+0001    0.20000E+0002
0003    0.11146E+0002    0.87575E+0001    0.20000E+0002
HEMCO: Opening /n/holylfs/EXTERNAL_REPOS/GEOS-CHEM/gcgrid/data/ExtData/GEOS_4x5/GEOS_FP/2016/07/GEOSFP.20160701.A1.4x5.nc
HEMCO: Opening /n/holylfs/EXTERNAL_REPOS/GEOS-CHEM/gcgrid/data/ExtData/GEOS_4x5/GEOS_FP/2016/07/GEOSFP.20160701.A3cld.4x5.nc
HEMCO: Opening /n/holylfs/EXTERNAL_REPOS/GEOS-CHEM/gcgrid/data/ExtData/GEOS_4x5/GEOS_FP/2016/07/GEOSFP.20160701.A3dyn.4x5.nc
HEMCO: Opening /n/holylfs/EXTERNAL_REPOS/GEOS-CHEM/gcgrid/data/ExtData/GEOS_4x5/GEOS_FP/2016/07/GEOSFP.20160701.A3mstC.4x5.nc
HEMCO: Opening /n/holylfs/EXTERNAL_REPOS/GEOS-CHEM/gcgrid/data/ExtData/GEOS_4x5/GEOS_FP/2016/07/GEOSFP.20160701.A3mstE.4x5.nc
HEMCO: Opening /n/holylfs/EXTERNAL_REPOS/GEOS-CHEM/gcgrid/data/ExtData/GEOS_4x5/GEOS_FP/2016/07/GEOSFP.20160701.I3.4x5.nc
     - Found all A1     met fields for 2016/07/01 08:30
     - DO_STRAT_CHEM: Linearized strat chemistry at 2016/07/01 08:00
     - LINOZ_CHEM3: Doing LINOZ
---> DATE: 2016/07/01  UTC: 08:10  X-HRS:      8.166667
 ----------------------------------------------------- 
 -- Lagrange module (i_box,box_lon,box_lat,box_lev) -- 
0001   -0.14927E+0000    0.28168E+0000    0.20000E+0002
0002    0.57484E+0001    0.40401E+0001    0.20000E+0002
0003    0.11163E+0002    0.87665E+0001    0.20000E+0002
---> DATE: 2016/07/01  UTC: 08:20  X-HRS:      8.333333
 ----------------------------------------------------- 
 -- Lagrange module (i_box,box_lon,box_lat,box_lev) -- 
0001   -0.15370E+0000    0.29198E+0000    0.20000E+0002
0002    0.57642E+0001    0.40402E+0001    0.20000E+0002
0003    0.11180E+0002    0.87756E+0001    0.20000E+0002
     - DO_STRAT_CHEM: Linearized strat chemistry at 2016/07/01 08:20
     - LINOZ_CHEM3: Doing LINOZ
---> DATE: 2016/07/01  UTC: 08:30  X-HRS:      8.500000
 ----------------------------------------------------- 
 -- Lagrange module (i_box,box_lon,box_lat,box_lev) -- 
0001   -0.15812E+0000    0.30227E+0000    0.20000E+0002
0002    0.57800E+0001    0.40404E+0001    0.20000E+0002
0003    0.11198E+0002    0.87847E+0001    0.20000E+0002
---> DATE: 2016/07/01  UTC: 08:40  X-HRS:      8.666667
 ----------------------------------------------------- 
 -- Lagrange module (i_box,box_lon,box_lat,box_lev) -- 
0001   -0.16255E+0000    0.31256E+0000    0.20000E+0002
0002    0.57958E+0001    0.40406E+0001    0.20000E+0002
0003    0.11215E+0002    0.87937E+0001    0.20000E+0002
     - DO_STRAT_CHEM: Linearized strat chemistry at 2016/07/01 08:40
     - LINOZ_CHEM3: Doing LINOZ
---> DATE: 2016/07/01  UTC: 08:50  X-HRS:      8.833333
 ----------------------------------------------------- 
 -- Lagrange module (i_box,box_lon,box_lat,box_lev) -- 
0001   -0.16698E+0000    0.32285E+0000    0.20000E+0002
0002    0.58115E+0001    0.40407E+0001    0.20000E+0002
0003    0.11232E+0002    0.88028E+0001    0.20000E+0002
---> DATE: 2016/07/01  UTC: 09:00  X-HRS:      9.000000
 ----------------------------------------------------- 
 -- Lagrange module (i_box,box_lon,box_lat,box_lev) -- 
0001   -0.17140E+0000    0.33314E+0000    0.20000E+0002
0002    0.58273E+0001    0.40409E+0001    0.20000E+0002
0003    0.11250E+0002    0.88118E+0001    0.20000E+0002
HEMCO: Opening /n/holylfs/EXTERNAL_REPOS/GEOS-CHEM/gcgrid/data/ExtData/GEOS_4x5/GEOS_FP/2016/07/GEOSFP.20160701.A1.4x5.nc
HEMCO: Opening /n/holylfs/EXTERNAL_REPOS/GEOS-CHEM/gcgrid/data/ExtData/GEOS_4x5/GEOS_FP/2016/07/GEOSFP.20160701.A3cld.4x5.nc
HEMCO: Opening /n/holylfs/EXTERNAL_REPOS/GEOS-CHEM/gcgrid/data/ExtData/GEOS_4x5/GEOS_FP/2016/07/GEOSFP.20160701.A3dyn.4x5.nc
HEMCO: Opening /n/holylfs/EXTERNAL_REPOS/GEOS-CHEM/gcgrid/data/ExtData/GEOS_4x5/GEOS_FP/2016/07/GEOSFP.20160701.A3mstC.4x5.nc
HEMCO: Opening /n/holylfs/EXTERNAL_REPOS/GEOS-CHEM/gcgrid/data/ExtData/GEOS_4x5/GEOS_FP/2016/07/GEOSFP.20160701.A3mstE.4x5.nc
HEMCO: Opening /n/holylfs/EXTERNAL_REPOS/GEOS-CHEM/gcgrid/data/ExtData/GEOS_4x5/GEOS_FP/2016/07/GEOSFP.20160701.I3.4x5.nc
     - Found all A1     met fields for 2016/07/01 09:30
     - Found all A3cld  met fields for 2016/07/01 10:30
     - Found all A3dyn  met fields for 2016/07/01 10:30
     - Found all A3mstC met fields for 2016/07/01 10:30
     - Found all A3mstE met fields for 2016/07/01 10:30
     - Found all I3     met fields for 2016/07/01 12:00
     - DO_STRAT_CHEM: Linearized strat chemistry at 2016/07/01 09:00
     - LINOZ_CHEM3: Doing LINOZ
---> DATE: 2016/07/01  UTC: 09:10  X-HRS:      9.166667
 ----------------------------------------------------- 
 -- Lagrange module (i_box,box_lon,box_lat,box_lev) -- 
0001   -0.17331E+0000    0.34701E+0000    0.20000E+0002
0002    0.58434E+0001    0.40424E+0001    0.20000E+0002
0003    0.11281E+0002    0.88191E+0001    0.20000E+0002
---> DATE: 2016/07/01  UTC: 09:20  X-HRS:      9.333333
 ----------------------------------------------------- 
 -- Lagrange module (i_box,box_lon,box_lat,box_lev) -- 
0001   -0.17523E+0000    0.36088E+0000    0.20000E+0002
0002    0.58595E+0001    0.40439E+0001    0.20000E+0002
0003    0.11311E+0002    0.88264E+0001    0.20000E+0002
     - DO_STRAT_CHEM: Linearized strat chemistry at 2016/07/01 09:20
     - LINOZ_CHEM3: Doing LINOZ
---> DATE: 2016/07/01  UTC: 09:30  X-HRS:      9.500000
 ----------------------------------------------------- 
 -- Lagrange module (i_box,box_lon,box_lat,box_lev) -- 
0001   -0.17714E+0000    0.37475E+0000    0.20000E+0002
0002    0.58756E+0001    0.40453E+0001    0.20000E+0002
0003    0.11342E+0002    0.88336E+0001    0.20000E+0002
---> DATE: 2016/07/01  UTC: 09:40  X-HRS:      9.666667
 ----------------------------------------------------- 
 -- Lagrange module (i_box,box_lon,box_lat,box_lev) -- 
0001   -0.17905E+0000    0.38862E+0000    0.20000E+0002
0002    0.58917E+0001    0.40468E+0001    0.20000E+0002
0003    0.11373E+0002    0.88409E+0001    0.20000E+0002
     - DO_STRAT_CHEM: Linearized strat chemistry at 2016/07/01 09:40
     - LINOZ_CHEM3: Doing LINOZ
---> DATE: 2016/07/01  UTC: 09:50  X-HRS:      9.833333
 ----------------------------------------------------- 
 -- Lagrange module (i_box,box_lon,box_lat,box_lev) -- 
0001   -0.18096E+0000    0.40249E+0000    0.20000E+0002
0002    0.59078E+0001    0.40483E+0001    0.20000E+0002
0003    0.11404E+0002    0.88482E+0001    0.20000E+0002
---> DATE: 2016/07/01  UTC: 10:00  X-HRS:     10.000000
 ----------------------------------------------------- 
 -- Lagrange module (i_box,box_lon,box_lat,box_lev) -- 
0001   -0.18288E+0000    0.41636E+0000    0.20000E+0002
0002    0.59238E+0001    0.40498E+0001    0.20000E+0002
0003    0.11435E+0002    0.88554E+0001    0.20000E+0002
HEMCO: Opening /n/holylfs/EXTERNAL_REPOS/GEOS-CHEM/gcgrid/data/ExtData/GEOS_4x5/GEOS_FP/2016/07/GEOSFP.20160701.A1.4x5.nc
HEMCO: Opening /n/holylfs/EXTERNAL_REPOS/GEOS-CHEM/gcgrid/data/ExtData/GEOS_4x5/GEOS_FP/2016/07/GEOSFP.20160701.A3cld.4x5.nc
HEMCO: Opening /n/holylfs/EXTERNAL_REPOS/GEOS-CHEM/gcgrid/data/ExtData/GEOS_4x5/GEOS_FP/2016/07/GEOSFP.20160701.A3dyn.4x5.nc
HEMCO: Opening /n/holylfs/EXTERNAL_REPOS/GEOS-CHEM/gcgrid/data/ExtData/GEOS_4x5/GEOS_FP/2016/07/GEOSFP.20160701.A3mstC.4x5.nc
HEMCO: Opening /n/holylfs/EXTERNAL_REPOS/GEOS-CHEM/gcgrid/data/ExtData/GEOS_4x5/GEOS_FP/2016/07/GEOSFP.20160701.A3mstE.4x5.nc
HEMCO: Opening /n/holylfs/EXTERNAL_REPOS/GEOS-CHEM/gcgrid/data/ExtData/GEOS_4x5/GEOS_FP/2016/07/GEOSFP.20160701.I3.4x5.nc
     - Found all A1     met fields for 2016/07/01 10:30
     - DO_STRAT_CHEM: Linearized strat chemistry at 2016/07/01 10:00
     - LINOZ_CHEM3: Doing LINOZ
---> DATE: 2016/07/01  UTC: 10:10  X-HRS:     10.166667
 ----------------------------------------------------- 
 -- Lagrange module (i_box,box_lon,box_lat,box_lev) -- 
0001   -0.18479E+0000    0.43023E+0000    0.20000E+0002
0002    0.59399E+0001    0.40513E+0001    0.20000E+0002
0003    0.11466E+0002    0.88627E+0001    0.20000E+0002
---> DATE: 2016/07/01  UTC: 10:20  X-HRS:     10.333333
 ----------------------------------------------------- 
 -- Lagrange module (i_box,box_lon,box_lat,box_lev) -- 
0001   -0.18670E+0000    0.44410E+0000    0.20000E+0002
0002    0.59560E+0001    0.40528E+0001    0.20000E+0002
0003    0.11497E+0002    0.88700E+0001    0.20000E+0002
     - DO_STRAT_CHEM: Linearized strat chemistry at 2016/07/01 10:20
     - LINOZ_CHEM3: Doing LINOZ
---> DATE: 2016/07/01  UTC: 10:30  X-HRS:     10.500000
 ----------------------------------------------------- 
 -- Lagrange module (i_box,box_lon,box_lat,box_lev) -- 
0001   -0.18861E+0000    0.45797E+0000    0.20000E+0002
0002    0.59721E+0001    0.40542E+0001    0.20000E+0002
0003    0.11528E+0002    0.88772E+0001    0.20000E+0002
---> DATE: 2016/07/01  UTC: 10:40  X-HRS:     10.666667
 ----------------------------------------------------- 
 -- Lagrange module (i_box,box_lon,box_lat,box_lev) -- 
0001   -0.19052E+0000    0.47184E+0000    0.20000E+0002
0002    0.59882E+0001    0.40557E+0001    0.20000E+0002
0003    0.11558E+0002    0.88845E+0001    0.20000E+0002
     - DO_STRAT_CHEM: Linearized strat chemistry at 2016/07/01 10:40
     - LINOZ_CHEM3: Doing LINOZ
---> DATE: 2016/07/01  UTC: 10:50  X-HRS:     10.833333
 ----------------------------------------------------- 
 -- Lagrange module (i_box,box_lon,box_lat,box_lev) -- 
0001   -0.19244E+0000    0.48572E+0000    0.20000E+0002
0002    0.60043E+0001    0.40572E+0001    0.20000E+0002
0003    0.11589E+0002    0.88918E+0001    0.20000E+0002
---> DATE: 2016/07/01  UTC: 11:00  X-HRS:     11.000000
 ----------------------------------------------------- 
 -- Lagrange module (i_box,box_lon,box_lat,box_lev) -- 
0001   -0.19435E+0000    0.49959E+0000    0.20000E+0002
0002    0.60203E+0001    0.40587E+0001    0.20000E+0002
0003    0.11620E+0002    0.88990E+0001    0.20000E+0002
HEMCO: Opening /n/holylfs/EXTERNAL_REPOS/GEOS-CHEM/gcgrid/data/ExtData/GEOS_4x5/GEOS_FP/2016/07/GEOSFP.20160701.A1.4x5.nc
HEMCO: Opening /n/holylfs/EXTERNAL_REPOS/GEOS-CHEM/gcgrid/data/ExtData/GEOS_4x5/GEOS_FP/2016/07/GEOSFP.20160701.A3cld.4x5.nc
HEMCO: Opening /n/holylfs/EXTERNAL_REPOS/GEOS-CHEM/gcgrid/data/ExtData/GEOS_4x5/GEOS_FP/2016/07/GEOSFP.20160701.A3dyn.4x5.nc
HEMCO: Opening /n/holylfs/EXTERNAL_REPOS/GEOS-CHEM/gcgrid/data/ExtData/GEOS_4x5/GEOS_FP/2016/07/GEOSFP.20160701.A3mstC.4x5.nc
HEMCO: Opening /n/holylfs/EXTERNAL_REPOS/GEOS-CHEM/gcgrid/data/ExtData/GEOS_4x5/GEOS_FP/2016/07/GEOSFP.20160701.A3mstE.4x5.nc
HEMCO: Opening /n/holylfs/EXTERNAL_REPOS/GEOS-CHEM/gcgrid/data/ExtData/GEOS_4x5/GEOS_FP/2016/07/GEOSFP.20160701.I3.4x5.nc
     - Found all A1     met fields for 2016/07/01 11:30
     - DO_STRAT_CHEM: Linearized strat chemistry at 2016/07/01 11:00
     - LINOZ_CHEM3: Doing LINOZ
---> DATE: 2016/07/01  UTC: 11:10  X-HRS:     11.166667
 ----------------------------------------------------- 
 -- Lagrange module (i_box,box_lon,box_lat,box_lev) -- 
0001   -0.19626E+0000    0.51346E+0000    0.20000E+0002
0002    0.60364E+0001    0.40602E+0001    0.20000E+0002
0003    0.11651E+0002    0.89063E+0001    0.20000E+0002
---> DATE: 2016/07/01  UTC: 11:20  X-HRS:     11.333333
 ----------------------------------------------------- 
 -- Lagrange module (i_box,box_lon,box_lat,box_lev) -- 
0001   -0.19817E+0000    0.52733E+0000    0.20000E+0002
0002    0.60525E+0001    0.40617E+0001    0.20000E+0002
0003    0.11682E+0002    0.89136E+0001    0.20000E+0002
     - DO_STRAT_CHEM: Linearized strat chemistry at 2016/07/01 11:20
     - LINOZ_CHEM3: Doing LINOZ
---> DATE: 2016/07/01  UTC: 11:30  X-HRS:     11.500000
 ----------------------------------------------------- 
 -- Lagrange module (i_box,box_lon,box_lat,box_lev) -- 
0001   -0.20009E+0000    0.54120E+0000    0.20000E+0002
0002    0.60686E+0001    0.40632E+0001    0.20000E+0002
0003    0.11713E+0002    0.89209E+0001    0.20000E+0002
---> DATE: 2016/07/01  UTC: 11:40  X-HRS:     11.666667
 ----------------------------------------------------- 
 -- Lagrange module (i_box,box_lon,box_lat,box_lev) -- 
0001   -0.20200E+0000    0.55507E+0000    0.20000E+0002
0002    0.60847E+0001    0.40646E+0001    0.20000E+0002
0003    0.11744E+0002    0.89281E+0001    0.20000E+0002
     - DO_STRAT_CHEM: Linearized strat chemistry at 2016/07/01 11:40
     - LINOZ_CHEM3: Doing LINOZ
---> DATE: 2016/07/01  UTC: 11:50  X-HRS:     11.833333
 ----------------------------------------------------- 
 -- Lagrange module (i_box,box_lon,box_lat,box_lev) -- 
0001   -0.20391E+0000    0.56894E+0000    0.20000E+0002
0002    0.61008E+0001    0.40661E+0001    0.20000E+0002
0003    0.11775E+0002    0.89354E+0001    0.20000E+0002
---> DATE: 2016/07/01  UTC: 12:00  X-HRS:     12.000000
 ----------------------------------------------------- 
 -- Lagrange module (i_box,box_lon,box_lat,box_lev) -- 
0001   -0.20582E+0000    0.58281E+0000    0.20000E+0002
0002    0.61169E+0001    0.40676E+0001    0.20000E+0002
0003    0.11805E+0002    0.89427E+0001    0.20000E+0002
HEMCO: Opening /n/holylfs/EXTERNAL_REPOS/GEOS-CHEM/gcgrid/data/ExtData/GEOS_4x5/GEOS_FP/2016/07/GEOSFP.20160701.A1.4x5.nc
HEMCO: Opening /n/holylfs/EXTERNAL_REPOS/GEOS-CHEM/gcgrid/data/ExtData/GEOS_4x5/GEOS_FP/2016/07/GEOSFP.20160701.A3cld.4x5.nc
HEMCO: Opening /n/holylfs/EXTERNAL_REPOS/GEOS-CHEM/gcgrid/data/ExtData/GEOS_4x5/GEOS_FP/2016/07/GEOSFP.20160701.A3dyn.4x5.nc
HEMCO: Opening /n/holylfs/EXTERNAL_REPOS/GEOS-CHEM/gcgrid/data/ExtData/GEOS_4x5/GEOS_FP/2016/07/GEOSFP.20160701.A3mstC.4x5.nc
HEMCO: Opening /n/holylfs/EXTERNAL_REPOS/GEOS-CHEM/gcgrid/data/ExtData/GEOS_4x5/GEOS_FP/2016/07/GEOSFP.20160701.A3mstE.4x5.nc
HEMCO: Opening /n/holylfs/EXTERNAL_REPOS/GEOS-CHEM/gcgrid/data/ExtData/GEOS_4x5/GEOS_FP/2016/07/GEOSFP.20160701.I3.4x5.nc
     - Found all A1     met fields for 2016/07/01 12:30
     - Found all A3cld  met fields for 2016/07/01 13:30
     - Found all A3dyn  met fields for 2016/07/01 13:30
     - Found all A3mstC met fields for 2016/07/01 13:30
     - Found all A3mstE met fields for 2016/07/01 13:30
     - Found all I3     met fields for 2016/07/01 15:00
     - DO_STRAT_CHEM: Linearized strat chemistry at 2016/07/01 12:00
     - LINOZ_CHEM3: Doing LINOZ
---> DATE: 2016/07/01  UTC: 12:10  X-HRS:     12.166667
 ----------------------------------------------------- 
 -- Lagrange module (i_box,box_lon,box_lat,box_lev) -- 
0001   -0.20402E+0000    0.59770E+0000    0.20000E+0002
0002    0.61312E+0001    0.40681E+0001    0.20000E+0002
0003    0.11830E+0002    0.89595E+0001    0.20000E+0002
---> DATE: 2016/07/01  UTC: 12:20  X-HRS:     12.333333
 ----------------------------------------------------- 
 -- Lagrange module (i_box,box_lon,box_lat,box_lev) -- 
0001   -0.20222E+0000    0.61259E+0000    0.20000E+0002
0002    0.61455E+0001    0.40685E+0001    0.20000E+0002
0003    0.11854E+0002    0.89763E+0001    0.20000E+0002
     - DO_STRAT_CHEM: Linearized strat chemistry at 2016/07/01 12:20
     - LINOZ_CHEM3: Doing LINOZ
---> DATE: 2016/07/01  UTC: 12:30  X-HRS:     12.500000
 ----------------------------------------------------- 
 -- Lagrange module (i_box,box_lon,box_lat,box_lev) -- 
0001   -0.20042E+0000    0.62748E+0000    0.20000E+0002
0002    0.61599E+0001    0.40690E+0001    0.20000E+0002
0003    0.11879E+0002    0.89932E+0001    0.20000E+0002
---> DATE: 2016/07/01  UTC: 12:40  X-HRS:     12.666667
 ----------------------------------------------------- 
 -- Lagrange module (i_box,box_lon,box_lat,box_lev) -- 
0001   -0.19861E+0000    0.64237E+0000    0.20000E+0002
0002    0.61742E+0001    0.40694E+0001    0.20000E+0002
0003    0.11903E+0002    0.90100E+0001    0.20000E+0002
